
  EPA STORM WATER MANAGEMENT MODEL - VERSION 5.2 (Build 5.2.4)
  PYSWMM TOOLKIT API - VERSION v1.0 (2023-11-27)
  ------------------------------------------------------------

  Gamma 
  Anon 
  WARNING 07: routing time step reduced to the wet weather time step 
  
  ****************
  Analysis Options
  ****************
  Flow Units ............... CFS
  Process Models:
    Rainfall/Runoff ........ YES
    RDII ................... NO
    Snowmelt ............... NO
    Groundwater ............ NO
    Flow Routing ........... YES
    Ponding Allowed ........ YES
    Water Quality .......... YES
  Infiltration Method ...... GREEN_AMPT
  Flow Routing Method ...... DYNWAVE
  Surcharge Method ......... EXTRAN
  Starting Date ............ 03/01/2021 00:00:00
  Ending Date .............. 10/15/2021 00:00:00
  Antecedent Dry Days ...... 5.0
  Report Time Step ......... 00:05:00
  Wet Time Step ............ 00:01:00
  Dry Time Step ............ 00:01:00
  Routing Time Step ........ 60.00 sec
  Variable Time Step ....... YES
  Maximum Trials ........... 4
  Number of Threads ........ 1
  Head Tolerance ........... 0.005000 ft
  
  
  **************************        Volume         Depth
  Runoff Quantity Continuity     acre-feet        inches
  **************************     ---------       -------
  Total Precipitation ......       464.683        27.075
  Evaporation Loss .........         0.000         0.000
  Infiltration Loss ........       177.343        10.333
  Surface Runoff ...........       286.807        16.711
  Final Storage ............         0.632         0.037
  Continuity Error (%) .....        -0.021
  
  
  **************************           TSS
  Runoff Quality Continuity            lbs
  **************************    ----------
  Initial Buildup ..........      3394.520
  Surface Buildup ..........     18533.376
  Wet Deposition ...........         0.000
  Sweeping Removal .........         0.000
  Infiltration Loss ........         0.000
  BMP Removal ..............         0.000
  Surface Runoff ...........     18252.555
  Remaining Buildup ........      3675.341
  Continuity Error (%) .....         0.000
  
  
  **************************        Volume        Volume
  Flow Routing Continuity        acre-feet      10^6 gal
  **************************     ---------     ---------
  Dry Weather Inflow .......         0.000         0.000
  Wet Weather Inflow .......       286.524        93.368
  Groundwater Inflow .......         0.000         0.000
  RDII Inflow ..............         0.000         0.000
  External Inflow ..........         0.000         0.000
  External Outflow .........       249.662        81.356
  Flooding Loss ............        37.010        12.060
  Evaporation Loss .........         0.000         0.000
  Exfiltration Loss ........         0.000         0.000
  Initial Stored Volume ....         0.000         0.000
  Final Stored Volume ......         0.034         0.011
  Continuity Error (%) .....        -0.063
  
  
  **************************           TSS
  Quality Routing Continuity           lbs
  **************************    ----------
  Dry Weather Inflow .......         0.000
  Wet Weather Inflow .......     18234.173
  Groundwater Inflow .......         0.000
  RDII Inflow ..............         0.000
  External Inflow ..........         0.000
  External Outflow .........        85.626
  Flooding Loss ............       179.867
  Exfiltration Loss ........         0.000
  Mass Reacted .............     17994.209
  Initial Stored Mass ......         0.000
  Final Stored Mass ........         0.011
  Continuity Error (%) .....        -0.140
  
  
  ***************************
  Time-Step Critical Elements
  ***************************
  Link 3C2 (74.09%)
  Link 5C4 (9.52%)
  
  
  ********************************
  Highest Flow Instability Indexes
  ********************************
  Link O3 (111)
  Link 3C2 (108)
  Link O2 (102)
  Link O5 (12)
  Link 5C4 (12)
  
  
  *********************************
  Most Frequent Nonconverging Nodes
  *********************************
  Node O (0.34%)
  Node J23 (0.10%)
  Node J13 (0.08%)
  Node 8 (0.07%)
  Node J25 (0.07%)
  
  
  *************************
  Routing Time Step Summary
  *************************
  Minimum Time Step           :     0.90 sec
  Average Time Step           :    33.10 sec
  Maximum Time Step           :    60.00 sec
  % of Time in Steady State   :     0.00
  Average Iterations per Step :     2.85
  % of Steps Not Converging   :     0.34
  Time Step Frequencies       :
     60.000 - 23.031 sec      :    65.68 %
     23.031 -  8.841 sec      :    31.84 %
      8.841 -  3.393 sec      :     2.47 %
      3.393 -  1.303 sec      :     0.00 %
      1.303 -  0.500 sec      :     0.00 %
  
  
  ***************************
  Subcatchment Runoff Summary
  ***************************
  
  ------------------------------------------------------------------------------------------------------------------------------
                            Total      Total      Total      Total     Imperv       Perv      Total       Total     Peak  Runoff
                           Precip      Runon       Evap      Infil     Runoff     Runoff     Runoff      Runoff   Runoff   Coeff
  Subcatchment                 in         in         in         in         in         in         in    10^6 gal      CFS
  ------------------------------------------------------------------------------------------------------------------------------
  102                       24.75       0.00       0.00      10.88      13.83       0.01      13.84        1.07     3.84   0.559
  103                       24.75       0.00       0.00      14.54      10.13       0.06      10.19        1.55     6.51   0.412
  115                       30.16       0.00       0.00      18.45      11.44       0.25      11.69        3.27    13.02   0.388
  120                       30.16       0.00       0.00      14.30      15.66       0.17      15.83        2.88    12.24   0.525
  1472                      24.75       0.00       0.00       8.85      15.81       0.06      15.87        1.38     5.66   0.641
  1497                      30.16       0.00       0.00       4.17      25.89       0.06      25.95       10.55    38.05   0.860
  1499                      26.23       0.00       0.00       1.27      24.87       0.05      24.91       17.07    63.83   0.950
  1503                      26.23       0.00       0.00       6.65      19.37       0.17      19.54        0.71     3.07   0.745
  1506                      26.03       0.00       0.00      12.73      13.25       0.02      13.27        3.65    16.87   0.510
  1570                      24.75       0.00       0.00      16.75       7.91       0.08       7.99        1.70     7.96   0.323
  1648                      30.16       0.00       0.00      16.49      13.55       0.10      13.65        1.00     3.97   0.452
  1736                      30.16       0.00       0.00      13.49      16.56       0.08      16.65        6.78    25.90   0.552
  1780                      30.16       0.00       0.00      18.00      12.05       0.10      12.15        0.77     3.18   0.403
  54                        26.23       0.00       0.00       3.36      22.77       0.05      22.82       22.54    88.51   0.870
  57                        26.23       0.00       0.00      17.75       8.38       0.09       8.46        2.33     9.90   0.323
  62                        26.23       0.00       0.00      16.38       9.43       0.41       9.84        2.82    18.51   0.375
  93                        30.16       0.00       0.00      13.74      16.26       0.14      16.40        3.66    15.22   0.544
  94                        26.03       0.00       0.00      16.74       9.09       0.18       9.28        3.22    24.84   0.356
  97                        24.75       0.00       0.00      12.55      12.10       0.07      12.18        6.49    29.41   0.492
  
  
  ****************************
  Subcatchment Washoff Summary
  ****************************
  
  ----------------------------------
                                 TSS
  Subcatchment                   lbs
  ----------------------------------
  102                        215.684
  103                        313.686
  115                        656.544
  120                        581.375
  1472                       279.670
  1497                      2065.797
  1499                      3171.988
  1503                       139.994
  1506                       737.990
  1570                       344.288
  1648                       202.966
  1736                      1370.169
  1780                       155.305
  54                        4276.946
  57                         466.737
  62                         570.589
  93                         740.388
  94                         649.242
  97                        1313.197
  ----------------------------------
  System                   18252.555
  
  
  ******************
  Node Depth Summary
  ******************
  
  ---------------------------------------------------------------------------------
                                 Average  Maximum  Maximum  Time of Max    Reported
                                   Depth    Depth      HGL   Occurrence   Max Depth
  Node                 Type         Feet     Feet     Feet  days hr:min        Feet
  ---------------------------------------------------------------------------------
  J13                  JUNCTION     0.02     1.00   889.17   116  17:02        1.00
  J14                  JUNCTION     0.04     1.00   882.00   111  20:59        1.00
  J15                  JUNCTION     0.11     1.00   872.00    25  00:04        1.00
  J18                  JUNCTION     0.06     1.00   875.22   100  15:06        1.00
  J19                  JUNCTION     0.06     0.55   858.83   164  02:10        0.55
  J22                  JUNCTION     0.02     0.46   879.46   116  17:18        0.46
  J23                  JUNCTION     0.05     0.65   868.65   116  17:20        0.65
  J24                  JUNCTION     0.22     1.00   847.00    25  03:24        1.00
  J25                  JUNCTION     0.14     0.50   833.00   206  01:50        0.50
  J26                  JUNCTION     0.23     1.00   822.50   116  23:00        1.00
  O                    OUTFALL      0.00     0.00   810.00     0  00:00        0.00
  11                   STORAGE      0.15     7.03   881.25   164  02:05        7.03
  9                    STORAGE      0.04     7.77   895.94   116  17:16        7.42
  5                    STORAGE      0.12     5.97   873.97   116  17:20        5.97
  4                    STORAGE      0.49     5.25   851.25   117  01:44        5.25
  10                   STORAGE      0.18     4.68   862.96   164  02:09        4.68
  3                    STORAGE      0.32     1.67   834.17   206  01:50        1.67
  1                    STORAGE      0.29     3.54   813.54   116  23:58        3.54
  2                    STORAGE      0.42     2.45   823.95   116  23:32        2.45
  6                    STORAGE      0.16     3.91   874.91   116  17:41        3.91
  7                    STORAGE      0.03     1.88   880.88   116  17:18        1.86
  8                    STORAGE      0.07     4.20   885.20   116  17:18        4.19
  
  
  *******************
  Node Inflow Summary
  *******************
  
  -------------------------------------------------------------------------------------------------
                                  Maximum  Maximum                  Lateral       Total        Flow
                                  Lateral    Total  Time of Max      Inflow      Inflow     Balance
                                   Inflow   Inflow   Occurrence      Volume      Volume       Error
  Node                 Type           CFS      CFS  days hr:min    10^6 gal    10^6 gal     Percent
  -------------------------------------------------------------------------------------------------
  J13                  JUNCTION      0.00    13.57   116  17:16           0        3.21      -0.284
  J14                  JUNCTION      0.00     9.33   116  17:18           0        6.82      -0.116
  J15                  JUNCTION      0.00    10.52   116  17:30           0        10.9       0.025
  J18                  JUNCTION      0.00    12.81   164  02:05           0        14.7      -0.109
  J19                  JUNCTION      0.00    10.61   164  02:09           0          27      -0.095
  J22                  JUNCTION      0.00     6.23   116  17:18           0        2.77      -0.029
  J23                  JUNCTION      0.00    12.04   116  17:20           0        15.8       0.044
  J24                  JUNCTION      0.00    10.75   117  01:44           0        62.7      -0.004
  J25                  JUNCTION      0.00     5.66   206  01:50           0        58.4       0.311
  J26                  JUNCTION      0.00     6.29   116  23:32           0        59.1       0.008
  O                    OUTFALL       0.00     9.81   116  23:59           0        81.3       0.000
  11                   STORAGE      58.17    58.17   164  01:30        14.7        14.7       0.080
  9                    STORAGE      24.84    24.84   116  17:15        3.21        3.21      -0.037
  5                    STORAGE      35.07    35.07   116  17:15        7.87        15.9       0.059
  4                    STORAGE      82.34    86.89   116  17:30        19.9        62.8       0.035
  10                   STORAGE      53.26    58.36   164  01:30        14.2          27      -0.056
  3                    STORAGE       9.90    15.41   116  23:00        2.33        58.3      -0.178
  1                    STORAGE      88.51    94.12   116  23:00        22.5        81.4       0.003
  2                    STORAGE       3.07     7.82   116  23:00       0.711          59      -0.177
  6                    STORAGE       6.51    17.66   116  17:15        1.55        10.9      -0.088
  7                    STORAGE      11.75    11.75   116  17:15        2.77        2.77       0.008
  8                    STORAGE      16.87    22.57   116  17:15        3.65        6.81      -0.057
  
  
  **********************
  Node Surcharge Summary
  **********************
  
  Surcharging occurs when water rises above the top of the highest conduit.
  ---------------------------------------------------------------------
                                               Max. Height   Min. Depth
                                   Hours       Above Crown    Below Rim
  Node                 Type      Surcharged           Feet         Feet
  ---------------------------------------------------------------------
  J13                  JUNCTION        0.52          0.000        0.000
  J14                  JUNCTION        5.59          0.000        0.000
  J15                  JUNCTION       29.83          0.000        0.000
  J18                  JUNCTION       23.87          0.000        0.000
  J24                  JUNCTION      103.92          0.000        0.000
  J26                  JUNCTION       34.58          0.000        0.000
  
  
  *********************
  Node Flooding Summary
  *********************
  
  Flooding refers to all water that overflows a node, whether it ponds or not.
  --------------------------------------------------------------------------
                                                             Total   Maximum
                                 Maximum   Time of Max       Flood    Ponded
                        Hours       Rate    Occurrence      Volume     Depth
  Node                 Flooded       CFS   days hr:min    10^6 gal      Feet
  --------------------------------------------------------------------------
  J13                     0.52      7.92    116  17:16       0.064     0.000
  J14                     5.59      4.27    116  17:20       0.274     0.000
  J15                    29.82     10.52    116  17:30       2.921     0.000
  J18                    23.86      7.94    164  02:05       1.844     0.000
  J24                   103.89      5.28    117  01:45       6.709     0.000
  J26                    34.55      1.33    116  23:33       0.246     0.000
  
  
  **********************
  Storage Volume Summary
  **********************
  
  ------------------------------------------------------------------------------------------------
                         Average    Avg   Evap  Exfil     Maximum    Max    Time of Max    Maximum
                          Volume   Pcnt   Pcnt   Pcnt      Volume   Pcnt     Occurrence    Outflow
  Storage Unit          1000 ft³   Full   Loss   Loss    1000 ft³   Full    days hr:min        CFS
  ------------------------------------------------------------------------------------------------
  11                       0.647    0.2    0.0    0.0      74.220   26.9     164  02:05      12.81
  9                        0.007    0.1    0.0    0.0       9.543   73.6     116  17:16      13.57
  5                        0.318    0.7    0.0    0.0      25.829   56.8     116  17:20      13.92
  4                       43.534    3.9    0.0    0.0     513.048   45.7     117  01:44      10.75
  10                       3.322    0.5    0.0    0.0     119.181   17.3     164  02:09      10.61
  3                       26.190    2.4    0.0    0.0     142.087   13.0     206  01:50       5.66
  1                       21.234    2.0    0.0    0.0     287.034   27.4     116  23:58       9.81
  2                        0.410    1.4    0.0    0.0       4.410   15.6     116  23:32       6.29
  6                        1.078    0.2    0.0    0.0      28.031    4.9     116  17:41       8.89
  7                        0.049    0.1    0.0    0.0       5.571    7.5     116  17:18       6.23
  8                        0.082    0.1    0.0    0.0      21.000   14.9     116  17:18       9.33
  
  
  ***********************
  Outfall Loading Summary
  ***********************
  
  -------------------------------------------------------------------------
                         Flow       Avg       Max       Total         Total
                         Freq      Flow      Flow      Volume           TSS
  Outfall Node           Pcnt       CFS       CFS    10^6 gal           lbs
  -------------------------------------------------------------------------
  O                     93.92      1.42      9.81      81.350        85.687
  -------------------------------------------------------------------------
  System                93.92      1.42      9.81      81.350        85.687
  
  
  ********************
  Link Flow Summary
  ********************
  
  -----------------------------------------------------------------------------
                                 Maximum  Time of Max   Maximum    Max/    Max/
                                  |Flow|   Occurrence   |Veloc|    Full    Full
  Link                 Type          CFS  days hr:min    ft/sec    Flow   Depth
  -----------------------------------------------------------------------------
  11C10                CONDUIT      5.96   111  20:56    >50.00    1.08    1.00
  5C4                  CONDUIT     12.04   116  17:20     28.62    0.75    0.82
  4C3                  CONDUIT      5.96   112  09:25     10.90    1.07    1.00
  3C2                  CONDUIT      5.66   206  01:50      8.96    0.50    0.75
  2C1                  CONDUIT      5.84   206  15:30      8.71    1.05    1.00
  9C8                  CONDUIT      6.80   116  17:02     25.54    0.90    1.00
  8C6                  CONDUIT      6.27   161  11:58    >50.00    1.07    1.00
  6C5                  CONDUIT      2.57   161  12:20      4.24    1.10    1.00
  7C6                  CONDUIT      6.23   116  17:18     11.38    0.23    0.66
  10C4                 CONDUIT     10.61   164  02:10      9.53    0.01    0.44
  O9                   ORIFICE     13.57   116  17:16                          
  O8                   ORIFICE      9.33   116  17:18                          
  O6                   ORIFICE      8.89   116  17:41                          
  O10                  ORIFICE     10.61   164  02:09                          
  O11                  ORIFICE     12.81   164  02:05                          
  O7                   ORIFICE      6.23   116  17:18                          
  O5                   ORIFICE     12.04   116  17:20                          
  O4                   ORIFICE     10.75   117  01:44                          
  O3                   ORIFICE      5.66   206  01:50                          
  O2                   ORIFICE      6.29   116  23:32                          
  O1                   ORIFICE      9.81   116  23:59                          
  
  
  ***************************
  Flow Classification Summary
  ***************************
  
  -------------------------------------------------------------------------------------
                      Adjusted    ---------- Fraction of Time in Flow Class ---------- 
                       /Actual         Up    Down  Sub   Sup   Up    Down  Norm  Inlet 
  Conduit               Length    Dry  Dry   Dry   Crit  Crit  Crit  Crit  Ltd   Ctrl  
  -------------------------------------------------------------------------------------
  11C10                   1.00   0.11  0.00  0.00  0.85  0.04  0.00  0.00  0.87  0.00
  5C4                     1.00   0.08  0.01  0.00  0.83  0.09  0.00  0.00  0.91  0.00
  4C3                     1.00   0.08  0.00  0.00  0.16  0.77  0.00  0.00  0.80  0.00
  3C2                     1.00   0.09  0.00  0.00  0.19  0.73  0.00  0.00  0.89  0.00
  2C1                     1.00   0.11  0.00  0.00  0.02  0.87  0.00  0.00  0.07  0.00
  9C8                     1.00   0.13  0.06  0.00  0.80  0.02  0.00  0.00  0.83  0.00
  8C6                     1.00   0.08  0.32  0.00  0.58  0.03  0.00  0.00  0.91  0.00
  6C5                     1.00   0.08  0.00  0.00  0.89  0.03  0.00  0.00  0.04  0.00
  7C6                     1.00   0.08  0.58  0.00  0.33  0.00  0.00  0.00  0.89  0.00
  10C4                    1.00   0.08  0.23  0.00  0.67  0.02  0.00  0.00  0.88  0.00
  
  
  *************************
  Conduit Surcharge Summary
  *************************
  
  ----------------------------------------------------------------------------
                                                           Hours        Hours 
                         --------- Hours Full --------   Above Full   Capacity
  Conduit                Both Ends  Upstream  Dnstream   Normal Flow   Limited
  ----------------------------------------------------------------------------
  11C10                      23.87     23.88     87.19      1.55         0.01
  5C4                         0.01      0.01    216.93      0.01         0.01
  4C3                        89.31    103.90    158.52     14.65         0.01
  3C2                         0.01      0.01    198.15      0.01         0.01
  2C1                        34.56     34.56    152.80      1.30         0.01
  9C8                         0.52      0.52     18.96      0.01         0.01
  8C6                         5.36      5.59     57.10      0.60         0.01
  6C5                        28.09     29.81     37.83      9.44         0.01
  7C6                         0.01      0.01     28.98      0.01         0.01
  
  
  ***************************
  Link Pollutant Load Summary
  ***************************
  
  ----------------------------------
                                 TSS
  Link                           lbs
  ----------------------------------
  11C10                     1298.309
  5C4                       1044.835
  4C3                          7.304
  3C2                          0.790
  2C1                        127.288
  9C8                        628.068
  8C6                       1135.926
  6C5                        110.747
  7C6                        399.248
  10C4                       375.463
  O9                         637.869
  O8                        1152.007
  O6                         168.264
  O10                        360.628
  O11                       1355.696
  O7                         395.288
  O5                        1041.417
  O4                           7.841
  O3                           0.787
  O2                         124.495
  O1                          85.687
  

  Analysis begun on:  Mon Aug 19 15:38:18 2024
  Analysis ended on:  Mon Aug 19 15:40:55 2024
  Total elapsed time: 00:02:37