
  EPA STORM WATER MANAGEMENT MODEL - VERSION 5.2 (Build 5.2.4)
  PYSWMM TOOLKIT API - VERSION v1.0 (2023-11-27)
  ------------------------------------------------------------

  Gamma 
  Anon 
  WARNING 07: routing time step reduced to the wet weather time step 
  
  ****************
  Analysis Options
  ****************
  Flow Units ............... CFS
  Process Models:
    Rainfall/Runoff ........ YES
    RDII ................... NO
    Snowmelt ............... NO
    Groundwater ............ NO
    Flow Routing ........... YES
    Ponding Allowed ........ YES
    Water Quality .......... YES
  Infiltration Method ...... GREEN_AMPT
  Flow Routing Method ...... DYNWAVE
  Surcharge Method ......... EXTRAN
  Starting Date ............ 06/10/2020 12:00:00
  Ending Date .............. 07/10/2020 12:00:00
  Antecedent Dry Days ...... 5.0
  Report Time Step ......... 00:05:00
  Wet Time Step ............ 00:01:00
  Dry Time Step ............ 00:01:00
  Routing Time Step ........ 60.00 sec
  Variable Time Step ....... YES
  Maximum Trials ........... 4
  Number of Threads ........ 1
  Head Tolerance ........... 0.005000 ft
  
  
  **************************        Volume         Depth
  Runoff Quantity Continuity     acre-feet        inches
  **************************     ---------       -------
  Total Precipitation ......         0.000         0.000
  Evaporation Loss .........         0.000         0.000
  Infiltration Loss ........         0.000         0.000
  Surface Runoff ...........         0.000         0.000
  Final Storage ............         0.000         0.000
  Continuity Error (%) .....         0.000
  
  
  **************************           TSS
  Runoff Quality Continuity            lbs
  **************************    ----------
  Initial Buildup ..........      3394.520
  Surface Buildup ..........       281.688
  Wet Deposition ...........         0.000
  Sweeping Removal .........         0.000
  Infiltration Loss ........         0.000
  BMP Removal ..............         0.000
  Surface Runoff ...........         0.000
  Remaining Buildup ........      3676.208
  Continuity Error (%) .....         0.000
  
  
  **************************        Volume        Volume
  Flow Routing Continuity        acre-feet      10^6 gal
  **************************     ---------     ---------
  Dry Weather Inflow .......         0.000         0.000
  Wet Weather Inflow .......         0.000         0.000
  Groundwater Inflow .......         0.000         0.000
  RDII Inflow ..............         0.000         0.000
  External Inflow ..........         0.000         0.000
  External Outflow .........         0.000         0.000
  Flooding Loss ............         0.000         0.000
  Evaporation Loss .........         0.000         0.000
  Exfiltration Loss ........         0.000         0.000
  Initial Stored Volume ....         0.000         0.000
  Final Stored Volume ......         0.000         0.000
  Continuity Error (%) .....         0.000
  
  
  **************************           TSS
  Quality Routing Continuity           lbs
  **************************    ----------
  Dry Weather Inflow .......         0.000
  Wet Weather Inflow .......         0.000
  Groundwater Inflow .......         0.000
  RDII Inflow ..............         0.000
  External Inflow ..........         0.000
  External Outflow .........         0.000
  Flooding Loss ............         0.000
  Exfiltration Loss ........         0.000
  Mass Reacted .............         0.000
  Initial Stored Mass ......         0.000
  Final Stored Mass ........         0.000
  Continuity Error (%) .....         0.000
  
  
  ***************************
  Time-Step Critical Elements
  ***************************
  None
  
  
  ********************************
  Highest Flow Instability Indexes
  ********************************
  All links are stable.
  
  
  *********************************
  Most Frequent Nonconverging Nodes
  *********************************
  Convergence obtained at all time steps.
  
  
  *************************
  Routing Time Step Summary
  *************************
  Minimum Time Step           :    59.50 sec
  Average Time Step           :    60.00 sec
  Maximum Time Step           :    60.00 sec
  % of Time in Steady State   :     0.00
  Average Iterations per Step :     2.00
  % of Steps Not Converging   :     0.00
  Time Step Frequencies       :
     60.000 - 23.031 sec      :   100.00 %
     23.031 -  8.841 sec      :     0.00 %
      8.841 -  3.393 sec      :     0.00 %
      3.393 -  1.303 sec      :     0.00 %
      1.303 -  0.500 sec      :     0.00 %
  
  
  ***************************
  Subcatchment Runoff Summary
  ***************************
  
  ------------------------------------------------------------------------------------------------------------------------------
                            Total      Total      Total      Total     Imperv       Perv      Total       Total     Peak  Runoff
                           Precip      Runon       Evap      Infil     Runoff     Runoff     Runoff      Runoff   Runoff   Coeff
  Subcatchment                 in         in         in         in         in         in         in    10^6 gal      CFS
  ------------------------------------------------------------------------------------------------------------------------------
  102                        0.00       0.00       0.00       0.00       0.00       0.00       0.00        0.00     0.00   0.000
  103                        0.00       0.00       0.00       0.00       0.00       0.00       0.00        0.00     0.00   0.000
  115                        0.00       0.00       0.00       0.00       0.00       0.00       0.00        0.00     0.00   0.000
  120                        0.00       0.00       0.00       0.00       0.00       0.00       0.00        0.00     0.00   0.000
  1472                       0.00       0.00       0.00       0.00       0.00       0.00       0.00        0.00     0.00   0.000
  1497                       0.00       0.00       0.00       0.00       0.00       0.00       0.00        0.00     0.00   0.000
  1499                       0.00       0.00       0.00       0.00       0.00       0.00       0.00        0.00     0.00   0.000
  1503                       0.00       0.00       0.00       0.00       0.00       0.00       0.00        0.00     0.00   0.000
  1506                       0.00       0.00       0.00       0.00       0.00       0.00       0.00        0.00     0.00   0.000
  1570                       0.00       0.00       0.00       0.00       0.00       0.00       0.00        0.00     0.00   0.000
  1648                       0.00       0.00       0.00       0.00       0.00       0.00       0.00        0.00     0.00   0.000
  1736                       0.00       0.00       0.00       0.00       0.00       0.00       0.00        0.00     0.00   0.000
  1780                       0.00       0.00       0.00       0.00       0.00       0.00       0.00        0.00     0.00   0.000
  54                         0.00       0.00       0.00       0.00       0.00       0.00       0.00        0.00     0.00   0.000
  57                         0.00       0.00       0.00       0.00       0.00       0.00       0.00        0.00     0.00   0.000
  62                         0.00       0.00       0.00       0.00       0.00       0.00       0.00        0.00     0.00   0.000
  93                         0.00       0.00       0.00       0.00       0.00       0.00       0.00        0.00     0.00   0.000
  94                         0.00       0.00       0.00       0.00       0.00       0.00       0.00        0.00     0.00   0.000
  97                         0.00       0.00       0.00       0.00       0.00       0.00       0.00        0.00     0.00   0.000
  
  
  ****************************
  Subcatchment Washoff Summary
  ****************************
  
  ----------------------------------
                                 TSS
  Subcatchment                   lbs
  ----------------------------------
  102                          0.000
  103                          0.000
  115                          0.000
  120                          0.000
  1472                         0.000
  1497                         0.000
  1499                         0.000
  1503                         0.000
  1506                         0.000
  1570                         0.000
  1648                         0.000
  1736                         0.000
  1780                         0.000
  54                           0.000
  57                           0.000
  62                           0.000
  93                           0.000
  94                           0.000
  97                           0.000
  ----------------------------------
  System                       0.000
  
  
  ******************
  Node Depth Summary
  ******************
  
  ---------------------------------------------------------------------------------
                                 Average  Maximum  Maximum  Time of Max    Reported
                                   Depth    Depth      HGL   Occurrence   Max Depth
  Node                 Type         Feet     Feet     Feet  days hr:min        Feet
  ---------------------------------------------------------------------------------
  J13                  JUNCTION  -nan(ind)     0.00   888.17     0  00:00        0.00
  J14                  JUNCTION  -nan(ind)     0.00   881.00     0  00:00        0.00
  J15                  JUNCTION  -nan(ind)     0.00   871.00     0  00:00        0.00
  J18                  JUNCTION  -nan(ind)     0.00   874.22     0  00:00        0.00
  J19                  JUNCTION  -nan(ind)     0.00   858.28     0  00:00        0.00
  J22                  JUNCTION  -nan(ind)     0.00   879.00     0  00:00        0.00
  J23                  JUNCTION  -nan(ind)     0.00   868.00     0  00:00        0.00
  J24                  JUNCTION  -nan(ind)     0.00   846.00     0  00:00        0.00
  J25                  JUNCTION  -nan(ind)     0.00   832.50     0  00:00        0.00
  J26                  JUNCTION  -nan(ind)     0.00   821.50     0  00:00        0.00
  O                    OUTFALL   -nan(ind)     0.00   810.00     0  00:00        0.00
  11                   STORAGE   -nan(ind)     0.00   874.22     0  00:00        0.00
  9                    STORAGE   -nan(ind)     0.00   888.17     0  00:00        0.00
  5                    STORAGE   -nan(ind)     0.00   868.00     0  00:00        0.00
  4                    STORAGE   -nan(ind)     0.00   846.00     0  00:00        0.00
  10                   STORAGE   -nan(ind)     0.00   858.28     0  00:00        0.00
  3                    STORAGE   -nan(ind)     0.00   832.50     0  00:00        0.00
  1                    STORAGE   -nan(ind)     0.00   810.00     0  00:00        0.00
  2                    STORAGE   -nan(ind)     0.00   821.50     0  00:00        0.00
  6                    STORAGE   -nan(ind)     0.00   871.00     0  00:00        0.00
  7                    STORAGE   -nan(ind)     0.00   879.00     0  00:00        0.00
  8                    STORAGE   -nan(ind)     0.00   881.00     0  00:00        0.00
  
  
  *******************
  Node Inflow Summary
  *******************
  
  -------------------------------------------------------------------------------------------------
                                  Maximum  Maximum                  Lateral       Total        Flow
                                  Lateral    Total  Time of Max      Inflow      Inflow     Balance
                                   Inflow   Inflow   Occurrence      Volume      Volume       Error
  Node                 Type           CFS      CFS  days hr:min    10^6 gal    10^6 gal     Percent
  -------------------------------------------------------------------------------------------------
  J13                  JUNCTION      0.00     0.00     0  00:00           0           0       0.000 gal
  J14                  JUNCTION      0.00     0.00     0  00:00           0           0       0.000 gal
  J15                  JUNCTION      0.00     0.00     0  00:00           0           0       0.000 gal
  J18                  JUNCTION      0.00     0.00     0  00:00           0           0       0.000 gal
  J19                  JUNCTION      0.00     0.00     0  00:00           0           0       0.000 gal
  J22                  JUNCTION      0.00     0.00     0  00:00           0           0       0.000 gal
  J23                  JUNCTION      0.00     0.00     0  00:00           0           0       0.000 gal
  J24                  JUNCTION      0.00     0.00     0  00:00           0           0       0.000 gal
  J25                  JUNCTION      0.00     0.00     0  00:00           0           0       0.000 gal
  J26                  JUNCTION      0.00     0.00     0  00:00           0           0       0.000 gal
  O                    OUTFALL       0.00     0.00     0  00:00           0           0       0.000 gal
  11                   STORAGE       0.00     0.00     0  00:00           0           0       0.000 gal
  9                    STORAGE       0.00     0.00     0  00:00           0           0       0.000 gal
  5                    STORAGE       0.00     0.00     0  00:00           0           0       0.000 gal
  4                    STORAGE       0.00     0.00     0  00:00           0           0       0.000 gal
  10                   STORAGE       0.00     0.00     0  00:00           0           0       0.000 gal
  3                    STORAGE       0.00     0.00     0  00:00           0           0       0.000 gal
  1                    STORAGE       0.00     0.00     0  00:00           0           0       0.000 gal
  2                    STORAGE       0.00     0.00     0  00:00           0           0       0.000 gal
  6                    STORAGE       0.00     0.00     0  00:00           0           0       0.000 gal
  7                    STORAGE       0.00     0.00     0  00:00           0           0       0.000 gal
  8                    STORAGE       0.00     0.00     0  00:00           0           0       0.000 gal
  
  
  **********************
  Node Surcharge Summary
  **********************
  
  No nodes were surcharged.
  
  
  *********************
  Node Flooding Summary
  *********************
  
  No nodes were flooded.
  
  
  **********************
  Storage Volume Summary
  **********************
  
  ------------------------------------------------------------------------------------------------
                         Average    Avg   Evap  Exfil     Maximum    Max    Time of Max    Maximum
                          Volume   Pcnt   Pcnt   Pcnt      Volume   Pcnt     Occurrence    Outflow
  Storage Unit          1000 ft³   Full   Loss   Loss    1000 ft³   Full    days hr:min        CFS
  ------------------------------------------------------------------------------------------------
  11                   -nan(ind)  -nan(ind)    0.0    0.0       0.000    0.0       0  00:00       0.00
  9                    -nan(ind)  -nan(ind)    0.0    0.0       0.000    0.0       0  00:00       0.00
  5                    -nan(ind)  -nan(ind)    0.0    0.0       0.000    0.0       0  00:00       0.00
  4                    -nan(ind)  -nan(ind)    0.0    0.0       0.000    0.0       0  00:00       0.00
  10                   -nan(ind)  -nan(ind)    0.0    0.0       0.000    0.0       0  00:00       0.00
  3                    -nan(ind)  -nan(ind)    0.0    0.0       0.000    0.0       0  00:00       0.00
  1                    -nan(ind)  -nan(ind)    0.0    0.0       0.000    0.0       0  00:00       0.00
  2                    -nan(ind)  -nan(ind)    0.0    0.0       0.000    0.0       0  00:00       0.00
  6                    -nan(ind)  -nan(ind)    0.0    0.0       0.000    0.0       0  00:00       0.00
  7                    -nan(ind)  -nan(ind)    0.0    0.0       0.000    0.0       0  00:00       0.00
  8                    -nan(ind)  -nan(ind)    0.0    0.0       0.000    0.0       0  00:00       0.00
  
  
  ***********************
  Outfall Loading Summary
  ***********************
  
  -------------------------------------------------------------------------
                         Flow       Avg       Max       Total         Total
                         Freq      Flow      Flow      Volume           TSS
  Outfall Node           Pcnt       CFS       CFS    10^6 gal           lbs
  -------------------------------------------------------------------------
  O                   -nan(ind)      0.00      0.00       0.000         0.000
  -------------------------------------------------------------------------
  System              -nan(ind)      0.00      0.00       0.000         0.000
  
  
  ********************
  Link Flow Summary
  ********************
  
  -----------------------------------------------------------------------------
                                 Maximum  Time of Max   Maximum    Max/    Max/
                                  |Flow|   Occurrence   |Veloc|    Full    Full
  Link                 Type          CFS  days hr:min    ft/sec    Flow   Depth
  -----------------------------------------------------------------------------
  11C10                CONDUIT      0.00     0  00:00      0.00    0.00    0.00
  5C4                  CONDUIT      0.00     0  00:00      0.00    0.00    0.00
  4C3                  CONDUIT      0.00     0  00:00      0.00    0.00    0.00
  3C2                  CONDUIT      0.00     0  00:00      0.00    0.00    0.00
  2C1                  CONDUIT      0.00     0  00:00      0.00    0.00    0.00
  9C8                  CONDUIT      0.00     0  00:00      0.00    0.00    0.00
  8C6                  CONDUIT      0.00     0  00:00      0.00    0.00    0.00
  6C5                  CONDUIT      0.00     0  00:00      0.00    0.00    0.00
  7C6                  CONDUIT      0.00     0  00:00      0.00    0.00    0.00
  10C4                 CONDUIT      0.00     0  00:00      0.00    0.00    0.00
  O9                   ORIFICE      0.00     0  00:00                          
  O8                   ORIFICE      0.00     0  00:00                          
  O6                   ORIFICE      0.00     0  00:00                          
  O10                  ORIFICE      0.00     0  00:00                          
  O11                  ORIFICE      0.00     0  00:00                          
  O7                   ORIFICE      0.00     0  00:00                          
  O5                   ORIFICE      0.00     0  00:00                          
  O4                   ORIFICE      0.00     0  00:00                          
  O3                   ORIFICE      0.00     0  00:00                          
  O2                   ORIFICE      0.00     0  00:00                          
  O1                   ORIFICE      0.00     0  00:00                          
  
  
  ***************************
  Flow Classification Summary
  ***************************
  
  -------------------------------------------------------------------------------------
                      Adjusted    ---------- Fraction of Time in Flow Class ---------- 
                       /Actual         Up    Down  Sub   Sup   Up    Down  Norm  Inlet 
  Conduit               Length    Dry  Dry   Dry   Crit  Crit  Crit  Crit  Ltd   Ctrl  
  -------------------------------------------------------------------------------------
  11C10                   1.00   -nan(ind)  -nan(ind)  -nan(ind)  -nan(ind)  -nan(ind)  -nan(ind)  -nan(ind)  -nan(ind)  -nan(ind)
  5C4                     1.00   -nan(ind)  -nan(ind)  -nan(ind)  -nan(ind)  -nan(ind)  -nan(ind)  -nan(ind)  -nan(ind)  -nan(ind)
  4C3                     1.00   -nan(ind)  -nan(ind)  -nan(ind)  -nan(ind)  -nan(ind)  -nan(ind)  -nan(ind)  -nan(ind)  -nan(ind)
  3C2                     1.00   -nan(ind)  -nan(ind)  -nan(ind)  -nan(ind)  -nan(ind)  -nan(ind)  -nan(ind)  -nan(ind)  -nan(ind)
  2C1                     1.00   -nan(ind)  -nan(ind)  -nan(ind)  -nan(ind)  -nan(ind)  -nan(ind)  -nan(ind)  -nan(ind)  -nan(ind)
  9C8                     1.00   -nan(ind)  -nan(ind)  -nan(ind)  -nan(ind)  -nan(ind)  -nan(ind)  -nan(ind)  -nan(ind)  -nan(ind)
  8C6                     1.00   -nan(ind)  -nan(ind)  -nan(ind)  -nan(ind)  -nan(ind)  -nan(ind)  -nan(ind)  -nan(ind)  -nan(ind)
  6C5                     1.00   -nan(ind)  -nan(ind)  -nan(ind)  -nan(ind)  -nan(ind)  -nan(ind)  -nan(ind)  -nan(ind)  -nan(ind)
  7C6                     1.00   -nan(ind)  -nan(ind)  -nan(ind)  -nan(ind)  -nan(ind)  -nan(ind)  -nan(ind)  -nan(ind)  -nan(ind)
  10C4                    1.00   -nan(ind)  -nan(ind)  -nan(ind)  -nan(ind)  -nan(ind)  -nan(ind)  -nan(ind)  -nan(ind)  -nan(ind)
  
  
  *************************
  Conduit Surcharge Summary
  *************************
  
  No conduits were surcharged.
  
  
  ***************************
  Link Pollutant Load Summary
  ***************************
  
  ----------------------------------
                                 TSS
  Link                           lbs
  ----------------------------------
  11C10                        0.000
  5C4                          0.000
  4C3                          0.000
  3C2                          0.000
  2C1                          0.000
  9C8                          0.000
  8C6                          0.000
  6C5                          0.000
  7C6                          0.000
  10C4                         0.000
  O9                           0.000
  O8                           0.000
  O6                           0.000
  O10                          0.000
  O11                          0.000
  O7                           0.000
  O5                           0.000
  O4                           0.000
  O3                           0.000
  O2                           0.000
  O1                           0.000
  

  Analysis begun on:  Fri Oct 25 13:53:27 2024
  Analysis ended on:  Fri Oct 25 13:53:47 2024
  Total elapsed time: 00:00:20