
  EPA STORM WATER MANAGEMENT MODEL - VERSION 5.2 (Build 5.2.4)
  PYSWMM TOOLKIT API - VERSION v1.0 (2023-11-27)
  ------------------------------------------------------------

  Gamma 
  Anon 
  WARNING 07: routing time step reduced to the wet weather time step 
  
  ****************
  Analysis Options
  ****************
  Flow Units ............... CFS
  Process Models:
    Rainfall/Runoff ........ YES
    RDII ................... NO
    Snowmelt ............... NO
    Groundwater ............ NO
    Flow Routing ........... YES
    Ponding Allowed ........ YES
    Water Quality .......... YES
  Infiltration Method ...... GREEN_AMPT
  Flow Routing Method ...... DYNWAVE
  Surcharge Method ......... EXTRAN
  Starting Date ............ 05/13/2020 00:00:00
  Ending Date .............. 05/20/2020 00:00:00
  Antecedent Dry Days ...... 5.0
  Report Time Step ......... 00:05:00
  Wet Time Step ............ 00:01:00
  Dry Time Step ............ 00:01:00
  Routing Time Step ........ 60.00 sec
  Variable Time Step ....... YES
  Maximum Trials ........... 4
  Number of Threads ........ 1
  Head Tolerance ........... 0.005000 ft
  
  
  **************************        Volume         Depth
  Runoff Quantity Continuity     acre-feet        inches
  **************************     ---------       -------
  Total Precipitation ......        58.531         3.410
  Evaporation Loss .........         0.000         0.000
  Infiltration Loss ........        22.889         1.334
  Surface Runoff ...........        35.015         2.040
  Final Storage ............         0.634         0.037
  Continuity Error (%) .....        -0.013
  
  
  **************************           TSS
  Runoff Quality Continuity            lbs
  **************************    ----------
  Initial Buildup ..........      3394.520
  Surface Buildup ..........      1980.869
  Wet Deposition ...........         0.000
  Sweeping Removal .........         0.000
  Infiltration Loss ........         0.000
  BMP Removal ..............         0.000
  Surface Runoff ...........      2311.120
  Remaining Buildup ........      3064.269
  Continuity Error (%) .....         0.000
  
  
  **************************        Volume        Volume
  Flow Routing Continuity        acre-feet      10^6 gal
  **************************     ---------     ---------
  Dry Weather Inflow .......         0.000         0.000
  Wet Weather Inflow .......        34.988        11.402
  Groundwater Inflow .......         0.000         0.000
  RDII Inflow ..............         0.000         0.000
  External Inflow ..........         0.000         0.000
  External Outflow .........         4.619         1.505
  Flooding Loss ............         0.358         0.117
  Evaporation Loss .........         0.000         0.000
  Exfiltration Loss ........         0.000         0.000
  Initial Stored Volume ....         0.000         0.000
  Final Stored Volume ......        29.896         9.742
  Continuity Error (%) .....         0.332
  
  
  **************************           TSS
  Quality Routing Continuity           lbs
  **************************    ----------
  Dry Weather Inflow .......         0.000
  Wet Weather Inflow .......      2309.357
  Groundwater Inflow .......         0.000
  RDII Inflow ..............         0.000
  External Inflow ..........         0.000
  External Outflow .........         3.310
  Flooding Loss ............         3.892
  Exfiltration Loss ........         0.000
  Mass Reacted .............      2300.880
  Initial Stored Mass ......         0.000
  Final Stored Mass ........         0.463
  Continuity Error (%) .....         0.035
  
  
  *************************
  Highest Continuity Errors
  *************************
  Node 6 (1.43%)
  Node 4 (1.34%)
  
  
  ***************************
  Time-Step Critical Elements
  ***************************
  Link 7C6 (42.64%)
  Link 3C2 (31.35%)
  Link 5C4 (15.99%)
  
  
  ********************************
  Highest Flow Instability Indexes
  ********************************
  Link O3 (52)
  Link 3C2 (52)
  Link O2 (50)
  Link 5C4 (20)
  Link O5 (20)
  
  
  *********************************
  Most Frequent Nonconverging Nodes
  *********************************
  Node O (0.32%)
  Node J23 (0.21%)
  Node J13 (0.08%)
  Node 9 (0.04%)
  Node J22 (0.00%)
  
  
  *************************
  Routing Time Step Summary
  *************************
  Minimum Time Step           :     1.36 sec
  Average Time Step           :    25.95 sec
  Maximum Time Step           :    60.00 sec
  % of Time in Steady State   :     0.00
  Average Iterations per Step :     2.53
  % of Steps Not Converging   :     0.32
  Time Step Frequencies       :
     60.000 - 23.031 sec      :    43.32 %
     23.031 -  8.841 sec      :    52.56 %
      8.841 -  3.393 sec      :     4.12 %
      3.393 -  1.303 sec      :     0.00 %
      1.303 -  0.500 sec      :     0.00 %
  
  
  ***************************
  Subcatchment Runoff Summary
  ***************************
  
  ------------------------------------------------------------------------------------------------------------------------------
                            Total      Total      Total      Total     Imperv       Perv      Total       Total     Peak  Runoff
                           Precip      Runon       Evap      Infil     Runoff     Runoff     Runoff      Runoff   Runoff   Coeff
  Subcatchment                 in         in         in         in         in         in         in    10^6 gal      CFS
  ------------------------------------------------------------------------------------------------------------------------------
  102                        3.50       0.00       0.00       1.54       1.93       0.00       1.93        0.15     1.60   0.551
  103                        3.50       0.00       0.00       2.07       1.41       0.00       1.41        0.21     2.32   0.403
  115                        3.28       0.00       0.00       2.03       1.22       0.00       1.22        0.34     2.07   0.373
  120                        3.28       0.00       0.00       1.57       1.67       0.00       1.67        0.30     2.84   0.511
  1472                       3.50       0.00       0.00       1.26       2.20       0.00       2.20        0.19     2.06   0.629
  1497                       3.28       0.00       0.00       0.46       2.77       0.00       2.77        1.13     8.40   0.844
  1499                       3.32       0.00       0.00       0.17       3.10       0.00       3.10        2.12    17.25   0.933
  1503                       3.32       0.00       0.00       0.86       2.41       0.00       2.41        0.09     0.72   0.727
  1506                       3.93       0.00       0.00       1.93       1.97       0.00       1.97        0.54     4.79   0.502
  1570                       3.50       0.00       0.00       2.38       1.10       0.00       1.10        0.24     2.54   0.315
  1648                       3.28       0.00       0.00       1.80       1.45       0.00       1.45        0.11     1.03   0.442
  1736                       3.28       0.00       0.00       1.48       1.77       0.00       1.77        0.72     6.77   0.540
  1780                       3.28       0.00       0.00       1.97       1.29       0.00       1.29        0.08     0.80   0.393
  54                         3.32       0.00       0.00       0.43       2.84       0.00       2.84        2.80    22.81   0.854
  57                         3.32       0.00       0.00       2.26       1.04       0.00       1.04        0.29     2.34   0.314
  62                         3.32       0.00       0.00       2.12       1.17       0.00       1.17        0.34     2.76   0.354
  93                         3.28       0.00       0.00       1.51       1.74       0.00       1.74        0.39     3.73   0.530
  94                         3.93       0.00       0.00       2.55       1.36       0.00       1.36        0.47     4.15   0.345
  97                         3.50       0.00       0.00       1.79       1.69       0.00       1.69        0.90     9.69   0.482
  
  
  ****************************
  Subcatchment Washoff Summary
  ****************************
  
  ----------------------------------
                                 TSS
  Subcatchment                   lbs
  ----------------------------------
  102                         30.089
  103                         43.525
  115                         69.143
  120                         61.632
  1472                        38.887
  1497                       228.255
  1499                       430.238
  1503                        17.786
  1506                       110.154
  1570                        47.558
  1648                        21.599
  1736                       146.104
  1780                        16.503
  54                         567.679
  57                          57.823
  62                          68.153
  93                          78.674
  94                          95.182
  97                         182.134
  ----------------------------------
  System                    2311.120
  
  
  ******************
  Node Depth Summary
  ******************
  
  ---------------------------------------------------------------------------------
                                 Average  Maximum  Maximum  Time of Max    Reported
                                   Depth    Depth      HGL   Occurrence   Max Depth
  Node                 Type         Feet     Feet     Feet  days hr:min        Feet
  ---------------------------------------------------------------------------------
  J13                  JUNCTION     0.06     0.64   888.81    78  13:45        0.64
  J14                  JUNCTION     0.12     0.60   881.60    78  21:25        0.60
  J15                  JUNCTION     0.00     0.00   871.00    73  00:00        0.00
  J18                  JUNCTION     0.14     1.00   875.22    78  09:57        1.00
  J19                  JUNCTION     0.09     0.27   858.55    78  21:54        0.27
  J22                  JUNCTION     0.33     1.40   880.40    79  04:18        1.40
  J23                  JUNCTION     0.06     0.49   868.49    78  13:46        0.49
  J24                  JUNCTION     0.12     0.32   846.32    79  06:39        0.32
  J25                  JUNCTION     0.10     0.22   832.72    79  10:12        0.21
  J26                  JUNCTION     0.15     0.32   821.82    78  13:46        0.32
  O                    OUTFALL      0.00     0.00   810.00    73  00:00        0.00
  11                   STORAGE      0.26     2.45   876.67    78  14:02        2.43
  9                    STORAGE      0.10     1.22   889.39    78  13:15        1.22
  5                    STORAGE      0.16     2.75   870.75    78  13:46        2.71
  4                    STORAGE      2.59     5.52   851.52    79  06:36        5.52
  10                   STORAGE      4.89     7.96   866.24    78  21:50        7.96
  3                    STORAGE      0.18     0.43   832.93    79  10:06        0.43
  1                    STORAGE      1.77     4.06   814.06    79  22:07        4.06
  2                    STORAGE      0.24     0.55   822.05    78  13:45        0.55
  6                    STORAGE      5.31     9.40   880.40    79  12:56        9.40
  7                    STORAGE      1.27     3.26   882.26    75  05:26        3.26
  8                    STORAGE      3.41     5.98   886.98    78  21:20        5.98
  
  
  *******************
  Node Inflow Summary
  *******************
  
  -------------------------------------------------------------------------------------------------
                                  Maximum  Maximum                  Lateral       Total        Flow
                                  Lateral    Total  Time of Max      Inflow      Inflow     Balance
                                   Inflow   Inflow   Occurrence      Volume      Volume       Error
  Node                 Type           CFS      CFS  days hr:min    10^6 gal    10^6 gal     Percent
  -------------------------------------------------------------------------------------------------
  J13                  JUNCTION      0.00     4.09    78  13:15           0       0.469       0.014
  J14                  JUNCTION      0.00     2.37    78  21:20           0       0.837       0.024
  J15                  JUNCTION      0.00     0.00    73  00:00           0           0       0.000 gal
  J18                  JUNCTION      0.00     6.28    78  14:02           0        1.55      -0.012
  J19                  JUNCTION      0.00     2.33    78  21:50           0        1.39       0.006
  J22                  JUNCTION      0.00     2.12    78  13:48           0       0.428       0.165
  J23                  JUNCTION      0.00     7.84    78  13:46           0        1.09       0.021
  J24                  JUNCTION      0.00     1.23    79  06:35           0        1.05       0.042
  J25                  JUNCTION      0.00     1.21    79  10:11           0        1.14       0.334
  J26                  JUNCTION      0.00     1.21    78  13:45           0        1.22       0.037
  O                    OUTFALL       0.00     2.42    74  12:08           0         1.5       0.000
  11                   STORAGE      13.50    13.50    74  09:45        1.55        1.55       0.060
  9                    STORAGE       4.15     4.15    78  13:15       0.469       0.469       0.005
  5                    STORAGE      11.76    11.76    78  13:45        1.09        1.09       0.012
  4                    STORAGE      20.02    27.94    78  13:45        2.46        4.94       1.357
  10                   STORAGE      12.13    15.82    74  09:45        1.51        3.02       0.543
  3                    STORAGE       2.34     2.62    78  13:45       0.287        1.34      -0.088
  1                    STORAGE      22.81    24.01    78  13:45         2.8        4.02       0.216
  2                    STORAGE       0.72     1.26    78  13:45      0.0877        1.22      -0.144
  6                    STORAGE       2.32     5.05    78  13:35       0.215        1.41       1.453
  7                    STORAGE       4.13     4.13    78  13:45       0.383       0.385       0.026
  8                    STORAGE       4.79     8.87    78  13:15       0.543        1.01       0.303
  
  
  **********************
  Node Surcharge Summary
  **********************
  
  Surcharging occurs when water rises above the top of the highest conduit.
  ---------------------------------------------------------------------
                                               Max. Height   Min. Depth
                                   Hours       Above Crown    Below Rim
  Node                 Type      Surcharged           Feet         Feet
  ---------------------------------------------------------------------
  J18                  JUNCTION        1.80          0.000        0.000
  J22                  JUNCTION       19.16          0.000        0.000
  
  
  *********************
  Node Flooding Summary
  *********************
  
  Flooding refers to all water that overflows a node, whether it ponds or not.
  --------------------------------------------------------------------------
                                                             Total   Maximum
                                 Maximum   Time of Max       Flood    Ponded
                        Hours       Rate    Occurrence      Volume     Depth
  Node                 Flooded       CFS   days hr:min    10^6 gal      Feet
  --------------------------------------------------------------------------
  J18                     1.80      1.95     78  14:02       0.048     0.000
  J22                    19.02      0.33     79  13:03       0.068     0.000
  
  
  **********************
  Storage Volume Summary
  **********************
  
  ------------------------------------------------------------------------------------------------
                         Average    Avg   Evap  Exfil     Maximum    Max    Time of Max    Maximum
                          Volume   Pcnt   Pcnt   Pcnt      Volume   Pcnt     Occurrence    Outflow
  Storage Unit          1000 ft³   Full   Loss   Loss    1000 ft³   Full    days hr:min        CFS
  ------------------------------------------------------------------------------------------------
  11                       0.801    0.3    0.0    0.0      13.219    4.8      78  14:02       6.28
  9                        0.013    0.1    0.0    0.0       0.350    2.7      78  13:15       4.09
  5                        0.388    0.9    0.0    0.0      10.119   22.2      78  13:46       7.84
  4                      241.573   21.5    0.0    0.0     544.006   48.4      79  06:36       1.23
  10                     139.132   20.2    0.0    0.0     271.712   39.4      78  21:50       2.33
  3                       14.148    1.3    0.0    0.0      34.384    3.2      79  10:06       1.21
  1                      139.695   13.3    0.0    0.0     335.731   32.0      79  22:07       2.42
  2                        0.112    0.4    0.0    0.0       0.410    1.4      78  13:45       1.21
  6                       72.558   12.8    0.0    0.0     176.343   31.1      79  12:56       0.32
  7                        3.954    5.3    0.0    0.0      13.863   18.7      75  05:26       2.12
  8                       16.658   11.8    0.0    0.0      47.237   33.5      78  21:20       2.37
  
  
  ***********************
  Outfall Loading Summary
  ***********************
  
  -------------------------------------------------------------------------
                         Flow       Avg       Max       Total         Total
                         Freq      Flow      Flow      Volume           TSS
  Outfall Node           Pcnt       CFS       CFS    10^6 gal           lbs
  -------------------------------------------------------------------------
  O                     88.41      0.47      2.42       1.505         3.303
  -------------------------------------------------------------------------
  System                88.41      0.47      2.42       1.505         3.303
  
  
  ********************
  Link Flow Summary
  ********************
  
  -----------------------------------------------------------------------------
                                 Maximum  Time of Max   Maximum    Max/    Max/
                                  |Flow|   Occurrence   |Veloc|    Full    Full
  Link                 Type          CFS  days hr:min    ft/sec    Flow   Depth
  -----------------------------------------------------------------------------
  11C10                CONDUIT      5.03    78  09:55      9.35    0.91    1.00
  5C4                  CONDUIT      7.84    78  13:47     28.14    0.49    0.75
  4C3                  CONDUIT      1.23    79  06:39      5.04    0.22    0.37
  3C2                  CONDUIT      1.21    79  10:13      4.51    0.11    0.37
  2C1                  CONDUIT      1.21    78  13:46      3.65    0.22    0.66
  9C8                  CONDUIT      4.08    78  13:15      6.05    0.54    0.82
  8C6                  CONDUIT      2.36    78  21:25      3.50    0.40    0.80
  6C5                  CONDUIT      0.00     0  00:00      0.00    0.00    0.50
  7C6                  CONDUIT      2.12    78  13:48      2.22    0.08    1.00
  10C4                 CONDUIT      2.33    78  21:54      0.18    0.00    0.44
  O9                   ORIFICE      4.09    78  13:15                          
  O8                   ORIFICE      2.37    78  21:20                          
  O6                   ORIFICE      0.00     0  00:00                          
  O10                  ORIFICE      2.33    78  21:50                          
  O11                  ORIFICE      6.28    78  14:02                          
  O7                   ORIFICE      2.12    78  13:48                          
  O5                   ORIFICE      7.84    78  13:46                          
  O4                   ORIFICE      1.23    79  06:35                          
  O3                   ORIFICE      1.21    79  10:11                          
  O2                   ORIFICE      1.21    78  13:45                          
  O1                   ORIFICE      2.42    74  12:08                          
  
  
  ***************************
  Flow Classification Summary
  ***************************
  
  -------------------------------------------------------------------------------------
                      Adjusted    ---------- Fraction of Time in Flow Class ---------- 
                       /Actual         Up    Down  Sub   Sup   Up    Down  Norm  Inlet 
  Conduit               Length    Dry  Dry   Dry   Crit  Crit  Crit  Crit  Ltd   Ctrl  
  -------------------------------------------------------------------------------------
  11C10                   1.00   0.20  0.00  0.00  0.78  0.02  0.00  0.00  0.76  0.00
  5C4                     1.00   0.20  0.02  0.00  0.73  0.05  0.00  0.00  0.80  0.00
  4C3                     1.00   0.20  0.14  0.00  0.01  0.65  0.00  0.00  0.66  0.00
  3C2                     1.00   0.20  0.00  0.00  0.08  0.72  0.00  0.00  0.80  0.00
  2C1                     1.00   0.20  0.00  0.00  0.79  0.01  0.00  0.00  0.80  0.00
  9C8                     1.00   0.20  0.09  0.00  0.70  0.01  0.00  0.00  0.79  0.00
  8C6                     1.00   0.20  0.04  0.00  0.77  0.00  0.00  0.00  0.76  0.00
  6C5                     1.00   0.20  0.80  0.00  0.00  0.00  0.00  0.00  0.00  0.00
  7C6                     1.00   0.20  0.08  0.00  0.72  0.00  0.00  0.00  0.53  0.00
  10C4                    1.00   0.20  0.12  0.00  0.69  0.00  0.00  0.00  0.69  0.00
  
  
  *************************
  Conduit Surcharge Summary
  *************************
  
  ----------------------------------------------------------------------------
                                                           Hours        Hours 
                         --------- Hours Full --------   Above Full   Capacity
  Conduit                Both Ends  Upstream  Dnstream   Normal Flow   Limited
  ----------------------------------------------------------------------------
  11C10                       1.81      1.81    133.92      0.01         0.01
  5C4                         0.01      0.01    117.27      0.01         0.01
  2C1                         0.01      0.01    116.01      0.01         0.01
  9C8                         0.01      0.01    134.33      0.01         0.01
  8C6                         0.01      0.01    122.53      0.01         0.01
  7C6                         0.01      0.01    118.81      0.01         0.01
  
  
  ***************************
  Link Pollutant Load Summary
  ***************************
  
  ----------------------------------
                                 TSS
  Link                           lbs
  ----------------------------------
  11C10                      186.949
  5C4                        162.767
  4C3                          0.002
  3C2                          0.051
  2C1                         17.085
  9C8                         94.798
  8C6                          0.455
  6C5                          0.000
  7C6                         21.391
  10C4                         0.009
  O9                          94.816
  O8                           0.455
  O6                           0.000
  O10                          0.008
  O11                        190.502
  O7                          21.396
  O5                         162.591
  O4                           0.002
  O3                           0.045
  O2                          16.704
  O1                           3.303
  

  Analysis begun on:  Sat Mar  9 16:41:19 2024
  Analysis ended on:  Sat Mar  9 16:41:41 2024
  Total elapsed time: 00:00:22