
  EPA STORM WATER MANAGEMENT MODEL - VERSION 5.2 (Build 5.2.4)
  PYSWMM TOOLKIT API - VERSION v1.0 (2023-11-27)
  ------------------------------------------------------------

  Gamma 
  Anon 
  WARNING 07: routing time step reduced to the wet weather time step 
  
  ****************
  Analysis Options
  ****************
  Flow Units ............... CFS
  Process Models:
    Rainfall/Runoff ........ YES
    RDII ................... NO
    Snowmelt ............... NO
    Groundwater ............ NO
    Flow Routing ........... YES
    Ponding Allowed ........ YES
    Water Quality .......... YES
  Infiltration Method ...... GREEN_AMPT
  Flow Routing Method ...... DYNWAVE
  Surcharge Method ......... EXTRAN
  Starting Date ............ 03/01/2021 00:00:00
  Ending Date .............. 10/15/2021 00:00:00
  Antecedent Dry Days ...... 5.0
  Report Time Step ......... 00:05:00
  Wet Time Step ............ 00:01:00
  Dry Time Step ............ 00:01:00
  Routing Time Step ........ 60.00 sec
  Variable Time Step ....... YES
  Maximum Trials ........... 4
  Number of Threads ........ 1
  Head Tolerance ........... 0.005000 ft
  
  
  **************************        Volume         Depth
  Runoff Quantity Continuity     acre-feet        inches
  **************************     ---------       -------
  Total Precipitation ......       464.683        27.075
  Evaporation Loss .........         0.000         0.000
  Infiltration Loss ........       177.343        10.333
  Surface Runoff ...........       286.807        16.711
  Final Storage ............         0.632         0.037
  Continuity Error (%) .....        -0.021
  
  
  **************************           TSS
  Runoff Quality Continuity            lbs
  **************************    ----------
  Initial Buildup ..........      3394.520
  Surface Buildup ..........     18533.376
  Wet Deposition ...........         0.000
  Sweeping Removal .........         0.000
  Infiltration Loss ........         0.000
  BMP Removal ..............         0.000
  Surface Runoff ...........     18252.555
  Remaining Buildup ........      3675.341
  Continuity Error (%) .....         0.000
  
  
  **************************        Volume        Volume
  Flow Routing Continuity        acre-feet      10^6 gal
  **************************     ---------     ---------
  Dry Weather Inflow .......         0.000         0.000
  Wet Weather Inflow .......       286.440        93.341
  Groundwater Inflow .......         0.000         0.000
  RDII Inflow ..............         0.000         0.000
  External Inflow ..........         0.000         0.000
  External Outflow .........       123.626        40.285
  Flooding Loss ............        97.579        31.798
  Evaporation Loss .........         0.000         0.000
  Exfiltration Loss ........         0.000         0.000
  Initial Stored Volume ....         0.000         0.000
  Final Stored Volume ......        65.078        21.207
  Continuity Error (%) .....         0.055
  
  
  **************************           TSS
  Quality Routing Continuity           lbs
  **************************    ----------
  Dry Weather Inflow .......         0.000
  Wet Weather Inflow .......     18229.117
  Groundwater Inflow .......         0.000
  RDII Inflow ..............         0.000
  External Inflow ..........         0.000
  External Outflow .........         0.001
  Flooding Loss ............       236.662
  Exfiltration Loss ........         0.000
  Mass Reacted .............     17975.946
  Initial Stored Mass ......         0.000
  Final Stored Mass ........         0.391
  Continuity Error (%) .....         0.088
  
  
  *************************
  Highest Continuity Errors
  *************************
  Node J22 (11.61%)
  Node 6 (-6.85%)
  
  
  ***************************
  Time-Step Critical Elements
  ***************************
  Link 3C2 (65.44%)
  Link 7C6 (7.81%)
  Link 5C4 (6.79%)
  
  
  ********************************
  Highest Flow Instability Indexes
  ********************************
  Link O3 (122)
  Link 3C2 (117)
  Link O2 (107)
  Link 5C4 (7)
  Link O5 (7)
  
  
  *********************************
  Most Frequent Nonconverging Nodes
  *********************************
  Node O (0.67%)
  Node J22 (0.62%)
  Node 9 (0.02%)
  Node J13 (0.02%)
  Node J23 (0.01%)
  
  
  *************************
  Routing Time Step Summary
  *************************
  Minimum Time Step           :     1.00 sec
  Average Time Step           :    33.57 sec
  Maximum Time Step           :    60.00 sec
  % of Time in Steady State   :     0.00
  Average Iterations per Step :     2.92
  % of Steps Not Converging   :     0.67
  Time Step Frequencies       :
     60.000 - 23.031 sec      :    83.38 %
     23.031 -  8.841 sec      :    15.65 %
      8.841 -  3.393 sec      :     0.96 %
      3.393 -  1.303 sec      :     0.00 %
      1.303 -  0.500 sec      :     0.00 %
  
  
  ***************************
  Subcatchment Runoff Summary
  ***************************
  
  ------------------------------------------------------------------------------------------------------------------------------
                            Total      Total      Total      Total     Imperv       Perv      Total       Total     Peak  Runoff
                           Precip      Runon       Evap      Infil     Runoff     Runoff     Runoff      Runoff   Runoff   Coeff
  Subcatchment                 in         in         in         in         in         in         in    10^6 gal      CFS
  ------------------------------------------------------------------------------------------------------------------------------
  102                       24.75       0.00       0.00      10.88      13.83       0.01      13.84        1.07     3.84   0.559
  103                       24.75       0.00       0.00      14.54      10.13       0.06      10.19        1.55     6.51   0.412
  115                       30.16       0.00       0.00      18.45      11.44       0.25      11.69        3.27    13.02   0.388
  120                       30.16       0.00       0.00      14.30      15.66       0.17      15.83        2.88    12.24   0.525
  1472                      24.75       0.00       0.00       8.85      15.81       0.06      15.87        1.38     5.66   0.641
  1497                      30.16       0.00       0.00       4.17      25.89       0.06      25.95       10.55    38.05   0.860
  1499                      26.23       0.00       0.00       1.27      24.87       0.05      24.91       17.07    63.83   0.950
  1503                      26.23       0.00       0.00       6.65      19.37       0.17      19.54        0.71     3.07   0.745
  1506                      26.03       0.00       0.00      12.73      13.25       0.02      13.27        3.65    16.87   0.510
  1570                      24.75       0.00       0.00      16.75       7.91       0.08       7.99        1.70     7.96   0.323
  1648                      30.16       0.00       0.00      16.49      13.55       0.10      13.65        1.00     3.97   0.452
  1736                      30.16       0.00       0.00      13.49      16.56       0.08      16.65        6.78    25.90   0.552
  1780                      30.16       0.00       0.00      18.00      12.05       0.10      12.15        0.77     3.18   0.403
  54                        26.23       0.00       0.00       3.36      22.77       0.05      22.82       22.54    88.51   0.870
  57                        26.23       0.00       0.00      17.75       8.38       0.09       8.46        2.33     9.90   0.323
  62                        26.23       0.00       0.00      16.38       9.43       0.41       9.84        2.82    18.51   0.375
  93                        30.16       0.00       0.00      13.74      16.26       0.14      16.40        3.66    15.22   0.544
  94                        26.03       0.00       0.00      16.74       9.09       0.18       9.28        3.22    24.84   0.356
  97                        24.75       0.00       0.00      12.55      12.10       0.07      12.18        6.49    29.41   0.492
  
  
  ****************************
  Subcatchment Washoff Summary
  ****************************
  
  ----------------------------------
                                 TSS
  Subcatchment                   lbs
  ----------------------------------
  102                        215.684
  103                        313.686
  115                        656.544
  120                        581.375
  1472                       279.670
  1497                      2065.797
  1499                      3171.988
  1503                       139.994
  1506                       737.990
  1570                       344.288
  1648                       202.966
  1736                      1370.169
  1780                       155.305
  54                        4276.946
  57                         466.737
  62                         570.589
  93                         740.388
  94                         649.242
  97                        1313.197
  ----------------------------------
  System                   18252.555
  
  
  ******************
  Node Depth Summary
  ******************
  
  ---------------------------------------------------------------------------------
                                 Average  Maximum  Maximum  Time of Max    Reported
                                   Depth    Depth      HGL   Occurrence   Max Depth
  Node                 Type         Feet     Feet     Feet  days hr:min        Feet
  ---------------------------------------------------------------------------------
  J13                  JUNCTION     0.03     1.00   889.17   116  16:51        1.00
  J14                  JUNCTION     0.05     0.19   881.19   137  13:55        0.19
  J15                  JUNCTION     0.06     1.00   872.00   111  21:06        1.00
  J18                  JUNCTION     0.05     1.00   875.22   100  15:04        1.00
  J19                  JUNCTION     0.06     0.19   858.47   169  19:38        0.19
  J22                  JUNCTION     0.53     1.40   880.40   120  17:25        1.40
  J23                  JUNCTION     0.04     0.64   868.64   116  17:23        0.64
  J24                  JUNCTION     0.13     0.25   846.25   117  02:31        0.25
  J25                  JUNCTION     0.10     0.28   832.78   116  23:49        0.28
  J26                  JUNCTION     0.14     0.92   822.42   116  23:34        0.91
  O                    OUTFALL      0.00     0.00   810.00     0  00:00        0.00
  11                   STORAGE      0.11     7.04   881.26   164  02:05        7.04
  9                    STORAGE      0.05     7.84   896.01   116  17:16        7.50
  5                    STORAGE      0.09     5.35   873.35   116  17:22        5.33
  4                    STORAGE      5.61    10.00   856.00   169  19:02       10.00
  10                   STORAGE      6.60    13.72   872.00   164  01:29       13.72
  3                    STORAGE      0.18     0.58   833.08   116  23:49        0.58
  1                    STORAGE      6.75    10.00   820.00   116  23:43       10.00
  2                    STORAGE      0.23     1.31   822.81   116  23:34        1.31
  6                    STORAGE      5.92     9.47   880.47   164  01:31        9.47
  7                    STORAGE      3.99    10.00   889.00   116  17:17       10.00
  8                    STORAGE      3.20     8.40   889.40   205  23:32        8.40
  
  
  *******************
  Node Inflow Summary
  *******************
  
  -------------------------------------------------------------------------------------------------
                                  Maximum  Maximum                  Lateral       Total        Flow
                                  Lateral    Total  Time of Max      Inflow      Inflow     Balance
                                   Inflow   Inflow   Occurrence      Volume      Volume       Error
  Node                 Type           CFS      CFS  days hr:min    10^6 gal    10^6 gal     Percent
  -------------------------------------------------------------------------------------------------
  J13                  JUNCTION      0.00    13.64   116  17:16           0        3.43      -0.030
  J14                  JUNCTION      0.00     0.47   137  13:55           0        5.83      -0.002
  J15                  JUNCTION      0.00     1.67   116  17:17           0        4.14       0.006
  J18                  JUNCTION      0.00    12.82   164  02:05           0        14.7      -0.011
  J19                  JUNCTION      0.00     1.06   169  19:36           0        21.7      -0.002
  J22                  JUNCTION      0.00     5.71   223  00:46           0        4.93      13.133
  J23                  JUNCTION      0.00    11.33   116  17:22           0        11.9       0.022
  J24                  JUNCTION      0.00     0.77   117  02:25           0        30.6       0.000
  J25                  JUNCTION      0.00     1.93   116  23:49           0        33.1       0.723
  J26                  JUNCTION      0.00     3.29   116  23:03           0        33.7      -0.003
  O                    OUTFALL       0.00     1.17   117  05:05           0        40.3       0.000
  11                   STORAGE      58.17    58.17   164  01:30        14.7        14.7       0.115
  9                    STORAGE      24.84    24.84   116  17:15        3.21        3.21      -0.005
  5                    STORAGE      35.07    35.07   116  17:15        7.86          12       0.046
  4                    STORAGE      82.34    84.96   116  23:00        19.9        53.5       0.230
  10                   STORAGE      53.26    55.75   164  01:30        14.2        25.6      -0.032
  3                    STORAGE       9.90    10.53   116  23:00        2.33          33      -0.394
  1                    STORAGE      88.51    91.44   116  23:00        22.5        56.2       0.039
  2                    STORAGE       3.07     4.35   116  22:59        0.71        33.6      -0.362
  6                    STORAGE       6.51     6.81   116  17:15        1.55        8.45      -6.412
  7                    STORAGE      11.75    11.75   116  17:15        2.77        2.77       0.041
  8                    STORAGE      16.87    20.58   116  17:15        3.65        6.44       0.048
  
  
  **********************
  Node Surcharge Summary
  **********************
  
  Surcharging occurs when water rises above the top of the highest conduit.
  ---------------------------------------------------------------------
                                               Max. Height   Min. Depth
                                   Hours       Above Crown    Below Rim
  Node                 Type      Surcharged           Feet         Feet
  ---------------------------------------------------------------------
  J13                  JUNCTION       22.91          0.000        0.000
  J15                  JUNCTION        1.01          0.000        0.000
  J18                  JUNCTION       33.43          0.000        0.000
  J22                  JUNCTION     2167.74          0.000        0.000
  
  
  *********************
  Node Flooding Summary
  *********************
  
  Flooding refers to all water that overflows a node, whether it ponds or not.
  --------------------------------------------------------------------------
                                                             Total   Maximum
                                 Maximum   Time of Max       Flood    Ponded
                        Hours       Rate    Occurrence      Volume     Depth
  Node                 Flooded       CFS   days hr:min    10^6 gal      Feet
  --------------------------------------------------------------------------
  J13                    22.90     10.00    116  17:16       0.630     0.000
  J15                     1.01      1.64    116  17:17       0.023     0.000
  J18                    33.43     10.33    164  02:05       3.277     0.000
  J22                  2107.88      4.23    223  00:47       3.270     0.000
  4                    1125.78     27.29    205  23:15      14.368     0.000
  10                      7.38     55.54    164  01:30       1.184     0.000
  1                    1134.68     61.28    164  00:15       8.057     0.000
  7                     158.36      8.80    164  01:30       0.982     0.000
  
  
  **********************
  Storage Volume Summary
  **********************
  
  ------------------------------------------------------------------------------------------------
                         Average    Avg   Evap  Exfil     Maximum    Max    Time of Max    Maximum
                          Volume   Pcnt   Pcnt   Pcnt      Volume   Pcnt     Occurrence    Outflow
  Storage Unit          1000 ft³   Full   Loss   Loss    1000 ft³   Full    days hr:min        CFS
  ------------------------------------------------------------------------------------------------
  11                       0.520    0.2    0.0    0.0      74.471   27.0     164  02:05      12.82
  9                        0.012    0.1    0.0    0.0       9.652   74.4     116  17:16      13.64
  5                        0.213    0.5    0.0    0.0      22.819   50.2     116  17:22      12.89
  4                      579.780   51.6    0.0    0.0    1122.846  100.0     169  19:02       0.77
  10                     237.030   34.4    0.0    0.0     689.926  100.0     164  01:29       1.06
  3                       14.275    1.3    0.0    0.0      47.169    4.3     116  23:49       1.93
  1                      655.551   62.5    0.0    0.0    1048.170  100.0     116  23:43       1.17
  2                        0.098    0.3    0.0    0.0       1.663    5.9     116  23:34       3.29
  6                       90.541   16.0    0.0    0.0     178.992   31.6     164  01:31       5.71
  7                       26.298   35.5    0.0    0.0      74.093  100.0     116  17:17       0.58
  8                       19.440   13.8    0.0    0.0     102.569   72.8     205  23:32       1.53
  
  
  ***********************
  Outfall Loading Summary
  ***********************
  
  -------------------------------------------------------------------------
                         Flow       Avg       Max       Total         Total
                         Freq      Flow      Flow      Volume           TSS
  Outfall Node           Pcnt       CFS       CFS    10^6 gal           lbs
  -------------------------------------------------------------------------
  O                     80.45      0.44      1.17      40.282         0.001
  -------------------------------------------------------------------------
  System                80.45      0.44      1.17      40.282         0.001
  
  
  ********************
  Link Flow Summary
  ********************
  
  -----------------------------------------------------------------------------
                                 Maximum  Time of Max   Maximum    Max/    Max/
                                  |Flow|   Occurrence   |Veloc|    Full    Full
  Link                 Type          CFS  days hr:min    ft/sec    Flow   Depth
  -----------------------------------------------------------------------------
  11C10                CONDUIT      5.62   190  19:06      7.29    1.01    1.00
  5C4                  CONDUIT     11.33   116  17:22     16.59    0.71    0.82
  4C3                  CONDUIT      0.77   117  02:31      3.89    0.14    0.42
  3C2                  CONDUIT      1.93   116  23:49      4.77    0.17    0.64
  2C1                  CONDUIT      3.02   116  23:03      4.25    0.54    0.96
  9C8                  CONDUIT      6.19   111  21:00      8.09    0.82    1.00
  8C6                  CONDUIT      0.47   137  13:55      2.25    0.08    0.60
  6C5                  CONDUIT      1.67   116  17:17      2.20    0.72    1.00
  7C6                  CONDUIT      5.71   223  00:46      5.99    0.21    1.00
  10C4                 CONDUIT      1.06   169  19:43      0.12    0.00    0.51
  O9                   ORIFICE     13.64   116  17:16                          
  O8                   ORIFICE      0.47   137  13:55                          
  O6                   ORIFICE      0.22   113  00:20                          
  O10                  ORIFICE      1.06   169  19:36                          
  O11                  ORIFICE     12.82   164  02:05                          
  O7                   ORIFICE      0.58   119  16:30                          
  O5                   ORIFICE     11.33   116  17:22                          
  O4                   ORIFICE      0.77   117  02:25                          
  O3                   ORIFICE      1.93   116  23:49                          
  O2                   ORIFICE      3.29   116  23:03                          
  O1                   ORIFICE      1.17   117  05:05                          
  
  
  ***************************
  Flow Classification Summary
  ***************************
  
  -------------------------------------------------------------------------------------
                      Adjusted    ---------- Fraction of Time in Flow Class ---------- 
                       /Actual         Up    Down  Sub   Sup   Up    Down  Norm  Inlet 
  Conduit               Length    Dry  Dry   Dry   Crit  Crit  Crit  Crit  Ltd   Ctrl  
  -------------------------------------------------------------------------------------
  11C10                   1.00   0.11  0.16  0.00  0.73  0.00  0.00  0.00  0.88  0.00
  5C4                     1.00   0.11  0.26  0.00  0.62  0.01  0.00  0.00  0.89  0.00
  4C3                     1.00   0.11  0.31  0.00  0.01  0.57  0.00  0.00  0.89  0.00
  3C2                     1.00   0.11  0.00  0.00  0.04  0.85  0.00  0.00  0.84  0.00
  2C1                     1.00   0.11  0.00  0.00  0.89  0.00  0.00  0.00  0.89  0.00
  9C8                     1.00   0.08  0.52  0.00  0.41  0.00  0.00  0.00  0.89  0.00
  8C6                     1.00   0.11  0.05  0.00  0.84  0.00  0.00  0.00  0.89  0.00
  6C5                     1.00   0.11  0.49  0.00  0.06  0.34  0.00  0.00  0.51  0.00
  7C6                     1.00   0.11  0.24  0.00  0.65  0.00  0.00  0.00  0.39  0.00
  10C4                    1.00   0.11  0.06  0.00  0.83  0.00  0.00  0.00  0.89  0.00
  
  
  *************************
  Conduit Surcharge Summary
  *************************
  
  ----------------------------------------------------------------------------
                                                           Hours        Hours 
                         --------- Hours Full --------   Above Full   Capacity
  Conduit                Both Ends  Upstream  Dnstream   Normal Flow   Limited
  ----------------------------------------------------------------------------
  11C10                      33.47     33.47   4872.39      0.22         0.01
  5C4                         0.01      0.01   4870.70      0.01         0.01
  3C2                         0.01      0.01      1.25      0.01         0.01
  2C1                         0.01      0.01   4870.69      0.01         0.01
  9C8                        22.81     22.81   4503.97      0.01         0.01
  8C6                         0.01      0.01   4554.73      0.01         0.01
  6C5                         1.01      1.01     12.78      0.01         0.01
  7C6                         0.01      0.01   4750.66      0.01         0.01
  10C4                        0.01      0.01   2099.29      0.01         0.01
  
  
  ***************************
  Link Pollutant Load Summary
  ***************************
  
  ----------------------------------
                                 TSS
  Link                           lbs
  ----------------------------------
  11C10                     1335.441
  5C4                       1061.432
  4C3                          0.006
  3C2                          0.365
  2C1                        130.751
  9C8                        547.989
  8C6                          0.501
  6C5                          5.935
  7C6                          3.945
  10C4                         0.168
  O9                         619.492
  O8                           0.488
  O6                           0.094
  O10                          0.068
  O11                       1498.222
  O7                           3.974
  O5                        1060.853
  O4                           0.006
  O3                           0.359
  O2                         130.471
  O1                           0.001
  

  Analysis begun on:  Mon Oct 28 10:20:46 2024
  Analysis ended on:  Mon Oct 28 10:34:20 2024
  Total elapsed time: 00:13:34