
  EPA STORM WATER MANAGEMENT MODEL - VERSION 5.2 (Build 5.2.4)
  PYSWMM TOOLKIT API - VERSION v1.0 (2023-11-27)
  ------------------------------------------------------------

  Gamma 
  Anon 
  WARNING 07: routing time step reduced to the wet weather time step 
  
  ****************
  Analysis Options
  ****************
  Flow Units ............... CFS
  Process Models:
    Rainfall/Runoff ........ YES
    RDII ................... NO
    Snowmelt ............... NO
    Groundwater ............ NO
    Flow Routing ........... YES
    Ponding Allowed ........ YES
    Water Quality .......... YES
  Infiltration Method ...... GREEN_AMPT
  Flow Routing Method ...... DYNWAVE
  Surcharge Method ......... EXTRAN
  Starting Date ............ 03/01/2020 00:00:00
  Ending Date .............. 10/15/2020 00:00:00
  Antecedent Dry Days ...... 5.0
  Report Time Step ......... 00:05:00
  Wet Time Step ............ 00:01:00
  Dry Time Step ............ 00:01:00
  Routing Time Step ........ 60.00 sec
  Variable Time Step ....... YES
  Maximum Trials ........... 4
  Number of Threads ........ 1
  Head Tolerance ........... 0.005000 ft
  
  
  **************************        Volume         Depth
  Runoff Quantity Continuity     acre-feet        inches
  **************************     ---------       -------
  Total Precipitation ......       383.444        22.342
  Evaporation Loss .........         0.000         0.000
  Infiltration Loss ........       149.010         8.682
  Surface Runoff ...........       233.886        13.628
  Final Storage ............         0.632         0.037
  Continuity Error (%) .....        -0.022
  
  
  **************************           TSS
  Runoff Quality Continuity            lbs
  **************************    ----------
  Initial Buildup ..........      3394.520
  Surface Buildup ..........     15660.110
  Wet Deposition ...........         0.000
  Sweeping Removal .........         0.000
  Infiltration Loss ........         0.000
  BMP Removal ..............         0.000
  Surface Runoff ...........     15378.742
  Remaining Buildup ........      3675.888
  Continuity Error (%) .....         0.000
  
  
  **************************        Volume        Volume
  Flow Routing Continuity        acre-feet      10^6 gal
  **************************     ---------     ---------
  Dry Weather Inflow .......         0.000         0.000
  Wet Weather Inflow .......       233.613        76.126
  Groundwater Inflow .......         0.000         0.000
  RDII Inflow ..............         0.000         0.000
  External Inflow ..........         0.000         0.000
  External Outflow .........       223.427        72.807
  Flooding Loss ............         6.952         2.265
  Evaporation Loss .........         0.000         0.000
  Exfiltration Loss ........         0.000         0.000
  Initial Stored Volume ....         0.000         0.000
  Final Stored Volume ......         3.335         1.087
  Continuity Error (%) .....        -0.043
  
  
  **************************           TSS
  Quality Routing Continuity           lbs
  **************************    ----------
  Dry Weather Inflow .......         0.000
  Wet Weather Inflow .......     15360.680
  Groundwater Inflow .......         0.000
  RDII Inflow ..............         0.000
  External Inflow ..........         0.000
  External Outflow .........         0.042
  Flooding Loss ............       114.835
  Exfiltration Loss ........         0.000
  Mass Reacted .............     15230.886
  Initial Stored Mass ......         0.000
  Final Stored Mass ........         0.082
  Continuity Error (%) .....         0.097
  
  
  ***************************
  Time-Step Critical Elements
  ***************************
  Link 3C2 (76.65%)
  Link 5C4 (12.12%)
  Link 7C6 (6.56%)
  
  
  ********************************
  Highest Flow Instability Indexes
  ********************************
  Link O3 (121)
  Link 3C2 (121)
  Link O2 (119)
  Link 5C4 (20)
  Link O5 (20)
  
  
  *********************************
  Most Frequent Nonconverging Nodes
  *********************************
  Node O (0.11%)
  Node J23 (0.09%)
  Node J13 (0.01%)
  Node 9 (0.01%)
  Node J22 (0.00%)
  
  
  *************************
  Routing Time Step Summary
  *************************
  Minimum Time Step           :     2.10 sec
  Average Time Step           :    27.21 sec
  Maximum Time Step           :    60.00 sec
  % of Time in Steady State   :     0.00
  Average Iterations per Step :     3.02
  % of Steps Not Converging   :     0.11
  Time Step Frequencies       :
     60.000 - 23.031 sec      :    65.58 %
     23.031 -  8.841 sec      :    33.70 %
      8.841 -  3.393 sec      :     0.72 %
      3.393 -  1.303 sec      :     0.00 %
      1.303 -  0.500 sec      :     0.00 %
  
  
  ***************************
  Subcatchment Runoff Summary
  ***************************
  
  ------------------------------------------------------------------------------------------------------------------------------
                            Total      Total      Total      Total     Imperv       Perv      Total       Total     Peak  Runoff
                           Precip      Runon       Evap      Infil     Runoff     Runoff     Runoff      Runoff   Runoff   Coeff
  Subcatchment                 in         in         in         in         in         in         in    10^6 gal      CFS
  ------------------------------------------------------------------------------------------------------------------------------
  102                       21.94       0.00       0.00       9.65      12.26       0.00      12.26        0.95     4.55   0.559
  103                       21.94       0.00       0.00      12.92       8.98       0.02       9.00        1.37     6.59   0.410
  115                       25.14       0.00       0.00      15.57       9.53       0.02       9.55        2.67    12.06   0.380
  120                       25.14       0.00       0.00      12.07      13.05       0.00      13.05        2.37    11.08   0.519
  1472                      21.94       0.00       0.00       7.89      14.01       0.01      14.02        1.22     5.88   0.639
  1497                      25.14       0.00       0.00       3.52      21.58       0.00      21.58        8.77    40.25   0.858
  1499                      20.90       0.00       0.00       1.04      19.80       0.00      19.80       13.57    78.33   0.948
  1503                      20.90       0.00       0.00       5.43      15.43       0.00      15.43        0.56     3.26   0.738
  1506                      20.94       0.00       0.00      10.26      10.65       0.00      10.65        2.93    10.83   0.509
  1570                      21.94       0.00       0.00      14.89       7.01       0.02       7.03        1.50     7.20   0.320
  1648                      25.14       0.00       0.00      13.83      11.29       0.00      11.29        0.83     3.88   0.449
  1736                      25.14       0.00       0.00      11.31      13.80       0.00      13.80        5.62    26.25   0.549
  1780                      25.14       0.00       0.00      15.08      10.04       0.00      10.04        0.64     2.97   0.399
  54                        20.90       0.00       0.00       2.72      18.13       0.00      18.13       17.91   103.05   0.868
  57                        20.90       0.00       0.00      14.21       6.67       0.00       6.67        1.84    10.52   0.319
  62                        20.90       0.00       0.00      13.38       7.51       0.00       7.51        2.15    12.59   0.359
  93                        25.14       0.00       0.00      11.56      13.55       0.00      13.55        3.02    14.14   0.539
  94                        20.94       0.00       0.00      13.55       7.31       0.06       7.37        2.56    14.14   0.352
  97                        21.94       0.00       0.00      11.18      10.73       0.01      10.74        5.73    27.56   0.489
  
  
  ****************************
  Subcatchment Washoff Summary
  ****************************
  
  ----------------------------------
                                 TSS
  Subcatchment                   lbs
  ----------------------------------
  102                        190.987
  103                        276.997
  115                        535.463
  120                        478.900
  1472                       247.001
  1497                      1772.079
  1499                      2738.924
  1503                       113.257
  1506                       591.482
  1570                       302.909
  1648                       167.845
  1736                      1135.368
  1780                       128.250
  54                        3613.633
  57                         366.862
  62                         434.895
  93                         611.520
  94                         514.826
  97                        1157.545
  ----------------------------------
  System                   15378.742
  
  
  ******************
  Node Depth Summary
  ******************
  
  ---------------------------------------------------------------------------------
                                 Average  Maximum  Maximum  Time of Max    Reported
                                   Depth    Depth      HGL   Occurrence   Max Depth
  Node                 Type         Feet     Feet     Feet  days hr:min        Feet
  ---------------------------------------------------------------------------------
  J13                  JUNCTION     0.01     1.00   889.17    27  05:20        1.00
  J14                  JUNCTION     0.04     0.19   881.19   180  09:10        0.19
  J15                  JUNCTION     0.10     1.00   872.00   131  17:32        1.00
  J18                  JUNCTION     0.03     1.00   875.22    27  05:11        1.00
  J19                  JUNCTION     0.06     0.20   858.48   213  15:45        0.20
  J22                  JUNCTION     0.27     1.40   880.40    40  10:11        1.40
  J23                  JUNCTION     0.05     0.63   868.63   140  12:47        0.62
  J24                  JUNCTION     0.16     0.41   846.41    75  05:36        0.41
  J25                  JUNCTION     0.12     0.28   832.78    75  12:04        0.28
  J26                  JUNCTION     0.17     0.58   822.08   140  12:46        0.57
  O                    OUTFALL      0.00     0.00   810.00     0  00:00        0.00
  11                   STORAGE      0.07     5.70   879.92   166  13:03        5.70
  9                    STORAGE      0.02     3.78   891.95    27  05:31        3.61
  5                    STORAGE      0.10     5.31   873.31   140  12:47        5.18
  4                    STORAGE      3.79     8.50   854.50    93  09:25        8.50
  10                   STORAGE      3.23     8.85   867.13    78  23:57        8.85
  3                    STORAGE      0.22     0.58   833.08    75  11:58        0.58
  1                    STORAGE      2.51     5.62   815.62    78  23:40        5.62
  2                    STORAGE      0.28     1.01   822.51   140  12:45        1.00
  6                    STORAGE      6.66     9.40   880.40    40  10:24        9.40
  7                    STORAGE      5.66    10.00   889.00    59  12:35       10.00
  8                    STORAGE      1.60     7.21   888.21    78  21:36        7.21
  
  
  *******************
  Node Inflow Summary
  *******************
  
  -------------------------------------------------------------------------------------------------
                                  Maximum  Maximum                  Lateral       Total        Flow
                                  Lateral    Total  Time of Max      Inflow      Inflow     Balance
                                   Inflow   Inflow   Occurrence      Volume      Volume       Error
  Node                 Type           CFS      CFS  days hr:min    10^6 gal    10^6 gal     Percent
  -------------------------------------------------------------------------------------------------
  J13                  JUNCTION      0.00     8.70    27  05:31           0        2.55       0.028
  J14                  JUNCTION      0.00     0.49   180  09:10           0        5.43      -0.001
  J15                  JUNCTION      0.00     1.74   140  12:46           0        7.93       0.008
  J18                  JUNCTION      0.00    11.31   166  13:04           0        12.1      -0.021
  J19                  JUNCTION      0.00     1.24   213  15:20           0        22.3      -0.004
  J22                  JUNCTION      0.00     0.35   154  05:45           0        1.67       0.103
  J23                  JUNCTION      0.00    11.28   140  12:47           0        14.8       0.062
  J24                  JUNCTION      0.00     2.01    75  05:35           0        52.5      -0.001
  J25                  JUNCTION      0.00     2.02    75  12:04           0        54.5       0.572
  J26                  JUNCTION      0.00     3.44   140  12:45           0        54.9      -0.002
  O                    OUTFALL       0.00     2.79    89  02:55           0        72.8       0.000
  11                   STORAGE      56.24    56.24   140  12:45        12.1        12.1       0.121
  9                    STORAGE      14.14    14.14    27  05:30        2.55        2.55       0.006
  5                    STORAGE      33.43    33.43   140  12:45        6.93        14.9       0.002
  4                    STORAGE      90.91   102.22   140  12:45        15.7        52.8      -0.005
  10                   STORAGE      54.39    58.92   140  12:45        11.8        22.2      -0.191
  3                    STORAGE      10.52    11.04   140  12:45        1.84        54.4      -0.297
  1                    STORAGE     103.05   106.41   140  12:45        17.9        72.8      -0.001
  2                    STORAGE       3.26     4.07   140  12:45       0.561        54.8      -0.297
  6                    STORAGE       6.59     6.90   140  12:45        1.37        8.45       0.137
  7                    STORAGE      11.75    11.75   140  12:45        2.44        2.45       0.026
  8                    STORAGE      10.83    17.46   140  12:26        2.93        5.43       0.004
  
  
  **********************
  Node Surcharge Summary
  **********************
  
  Surcharging occurs when water rises above the top of the highest conduit.
  ---------------------------------------------------------------------
                                               Max. Height   Min. Depth
                                   Hours       Above Crown    Below Rim
  Node                 Type      Surcharged           Feet         Feet
  ---------------------------------------------------------------------
  J13                  JUNCTION        0.80          0.000        0.000
  J15                  JUNCTION        0.40          0.000        0.000
  J18                  JUNCTION       22.46          0.000        0.000
  J22                  JUNCTION       11.50          0.000        0.000
  
  
  *********************
  Node Flooding Summary
  *********************
  
  Flooding refers to all water that overflows a node, whether it ponds or not.
  --------------------------------------------------------------------------
                                                             Total   Maximum
                                 Maximum   Time of Max       Flood    Ponded
                        Hours       Rate    Occurrence      Volume     Depth
  Node                 Flooded       CFS   days hr:min    10^6 gal      Feet
  --------------------------------------------------------------------------
  J13                     0.80      4.28     27  05:31       0.045     0.000
  J15                     0.40      1.70    140  12:46       0.010     0.000
  J18                    22.46      6.21    166  13:04       1.656     0.000
  J22                    11.48      0.08     40  10:32       0.009     0.000
  7                     140.23     11.71    140  12:45       0.543     0.000
  
  
  **********************
  Storage Volume Summary
  **********************
  
  ------------------------------------------------------------------------------------------------
                         Average    Avg   Evap  Exfil     Maximum    Max    Time of Max    Maximum
                          Volume   Pcnt   Pcnt   Pcnt      Volume   Pcnt     Occurrence    Outflow
  Storage Unit          1000 ft³   Full   Loss   Loss    1000 ft³   Full    days hr:min        CFS
  ------------------------------------------------------------------------------------------------
  11                       0.298    0.1    0.0    0.0      52.348   19.0     166  13:03      11.31
  9                        0.003    0.0    0.0    0.0       3.437   26.5      27  05:31       8.70
  5                        0.207    0.5    0.0    0.0      22.603   49.7     140  12:47      12.98
  4                      373.703   33.3    0.0    0.0     921.644   82.1      93  09:25       2.01
  10                      82.869   12.0    0.0    0.0     323.645   46.9      78  23:57       1.24
  3                       17.861    1.6    0.0    0.0      47.242    4.3      75  11:58       2.02
  1                      201.042   19.2    0.0    0.0     493.321   47.1      78  23:40       2.79
  2                        0.139    0.5    0.0    0.0       1.131    4.0     140  12:45       3.44
  6                       98.902   17.4    0.0    0.0     176.286   31.1      40  10:24       0.43
  7                       38.655   52.2    0.0    0.0      74.093  100.0      59  12:35       0.35
  8                        4.375    3.1    0.0    0.0      74.066   52.6      78  21:36       0.49
  
  
  ***********************
  Outfall Loading Summary
  ***********************
  
  -------------------------------------------------------------------------
                         Flow       Avg       Max       Total         Total
                         Freq      Flow      Flow      Volume           TSS
  Outfall Node           Pcnt       CFS       CFS    10^6 gal           lbs
  -------------------------------------------------------------------------
  O                     94.54      0.58      2.79      72.802         0.042
  -------------------------------------------------------------------------
  System                94.54      0.58      2.79      72.802         0.042
  
  
  ********************
  Link Flow Summary
  ********************
  
  -----------------------------------------------------------------------------
                                 Maximum  Time of Max   Maximum    Max/    Max/
                                  |Flow|   Occurrence   |Veloc|    Full    Full
  Link                 Type          CFS  days hr:min    ft/sec    Flow   Depth
  -----------------------------------------------------------------------------
  11C10                CONDUIT      5.86   166  12:37      9.27    1.06    1.00
  5C4                  CONDUIT     11.28   140  12:47     19.34    0.70    0.81
  4C3                  CONDUIT      2.01    75  05:36     14.53    0.36    0.50
  3C2                  CONDUIT      2.03    75  11:45      5.11    0.18    0.59
  2C1                  CONDUIT      3.41   140  12:46      5.12    0.61    0.79
  9C8                  CONDUIT      6.73   140  12:26      8.73    0.89    1.00
  8C6                  CONDUIT      0.49   180  09:10      2.24    0.08    0.60
  6C5                  CONDUIT      1.74   140  12:46      2.62    0.75    1.00
  7C6                  CONDUIT      0.35   154  05:49      6.16    0.01    1.00
  10C4                 CONDUIT      1.23   213  15:50      3.08    0.00    0.51
  O9                   ORIFICE      8.70    27  05:31                          
  O8                   ORIFICE      0.49   180  09:10                          
  O6                   ORIFICE      0.43    76  20:15                          
  O10                  ORIFICE      1.24   213  15:20                          
  O11                  ORIFICE     11.31   166  13:04                          
  O7                   ORIFICE      0.35   154  05:45                          
  O5                   ORIFICE     11.28   140  12:47                          
  O4                   ORIFICE      2.01    75  05:35                          
  O3                   ORIFICE      2.02    75  12:04                          
  O2                   ORIFICE      3.44   140  12:45                          
  O1                   ORIFICE      2.79    89  02:55                          
  
  
  ***************************
  Flow Classification Summary
  ***************************
  
  -------------------------------------------------------------------------------------
                      Adjusted    ---------- Fraction of Time in Flow Class ---------- 
                       /Actual         Up    Down  Sub   Sup   Up    Down  Norm  Inlet 
  Conduit               Length    Dry  Dry   Dry   Crit  Crit  Crit  Crit  Ltd   Ctrl  
  -------------------------------------------------------------------------------------
  11C10                   1.00   0.08  0.14  0.00  0.78  0.01  0.00  0.00  0.91  0.00
  5C4                     1.00   0.08  0.06  0.00  0.82  0.05  0.00  0.00  0.92  0.00
  4C3                     1.00   0.08  0.13  0.00  0.02  0.77  0.00  0.00  0.90  0.00
  3C2                     1.00   0.08  0.00  0.00  0.01  0.91  0.00  0.00  0.92  0.00
  2C1                     1.00   0.08  0.00  0.00  0.92  0.00  0.00  0.00  0.92  0.00
  9C8                     1.00   0.08  0.47  0.00  0.45  0.00  0.00  0.00  0.92  0.00
  8C6                     1.00   0.08  0.19  0.00  0.73  0.00  0.00  0.00  0.92  0.00
  6C5                     1.00   0.08  0.16  0.00  0.15  0.61  0.00  0.00  0.16  0.00
  7C6                     1.00   0.08  0.48  0.00  0.44  0.00  0.00  0.00  0.53  0.00
  10C4                    1.00   0.08  0.10  0.00  0.82  0.00  0.00  0.00  0.92  0.00
  
  
  *************************
  Conduit Surcharge Summary
  *************************
  
  ----------------------------------------------------------------------------
                                                           Hours        Hours 
                         --------- Hours Full --------   Above Full   Capacity
  Conduit                Both Ends  Upstream  Dnstream   Normal Flow   Limited
  ----------------------------------------------------------------------------
  11C10                      22.48     22.48   4087.77      0.08         0.01
  5C4                         0.01      0.01   4071.42      0.01         0.01
  3C2                         0.01      0.01      0.04      0.01         0.01
  2C1                         0.01      0.01   4432.13      0.01         0.01
  9C8                         0.80      0.80   3960.86      0.01         0.01
  8C6                         0.01      0.01   4792.36      0.01         0.01
  6C5                         0.40      0.40     14.35      0.01         0.01
  7C6                         0.01      0.01   4498.63      0.01         0.01
  10C4                        0.01      0.01    854.68      0.01         0.01
  
  
  ***************************
  Link Pollutant Load Summary
  ***************************
  
  ----------------------------------
                                 TSS
  Link                           lbs
  ----------------------------------
  11C10                     1177.745
  5C4                        935.920
  4C3                          0.381
  3C2                          0.294
  2C1                        105.707
  9C8                        500.501
  8C6                          7.430
  6C5                          4.552
  7C6                          1.701
  10C4                         5.600
  O9                         509.187
  O8                           7.485
  O6                           0.001
  O10                          5.317
  O11                       1281.421
  O7                           1.610
  O5                         935.048
  O4                           0.379
  O3                           0.284
  O2                         104.991
  O1                           0.042
  

  Analysis begun on:  Wed Nov  6 11:00:51 2024
  Analysis ended on:  Wed Nov  6 11:16:09 2024
  Total elapsed time: 00:15:18