
  EPA STORM WATER MANAGEMENT MODEL - VERSION 5.2 (Build 5.2.4)
  PYSWMM TOOLKIT API - VERSION v1.0 (2023-11-27)
  ------------------------------------------------------------

  Gamma 
  Anon 
  WARNING 07: routing time step reduced to the wet weather time step 
  
  ****************
  Analysis Options
  ****************
  Flow Units ............... CFS
  Process Models:
    Rainfall/Runoff ........ YES
    RDII ................... NO
    Snowmelt ............... NO
    Groundwater ............ NO
    Flow Routing ........... YES
    Ponding Allowed ........ YES
    Water Quality .......... YES
  Infiltration Method ...... GREEN_AMPT
  Flow Routing Method ...... DYNWAVE
  Surcharge Method ......... EXTRAN
  Starting Date ............ 03/01/2021 00:00:00
  Ending Date .............. 10/15/2021 00:00:00
  Antecedent Dry Days ...... 5.0
  Report Time Step ......... 00:05:00
  Wet Time Step ............ 00:01:00
  Dry Time Step ............ 00:01:00
  Routing Time Step ........ 60.00 sec
  Variable Time Step ....... YES
  Maximum Trials ........... 4
  Number of Threads ........ 1
  Head Tolerance ........... 0.005000 ft
  
  
  **************************        Volume         Depth
  Runoff Quantity Continuity     acre-feet        inches
  **************************     ---------       -------
  Total Precipitation ......       464.683        27.075
  Evaporation Loss .........         0.000         0.000
  Infiltration Loss ........       177.343        10.333
  Surface Runoff ...........       286.807        16.711
  Final Storage ............         0.632         0.037
  Continuity Error (%) .....        -0.021
  
  
  **************************           TSS
  Runoff Quality Continuity            lbs
  **************************    ----------
  Initial Buildup ..........      3394.520
  Surface Buildup ..........     18533.376
  Wet Deposition ...........         0.000
  Sweeping Removal .........         0.000
  Infiltration Loss ........         0.000
  BMP Removal ..............         0.000
  Surface Runoff ...........     18252.555
  Remaining Buildup ........      3675.341
  Continuity Error (%) .....         0.000
  
  
  **************************        Volume        Volume
  Flow Routing Continuity        acre-feet      10^6 gal
  **************************     ---------     ---------
  Dry Weather Inflow .......         0.000         0.000
  Wet Weather Inflow .......       286.469        93.350
  Groundwater Inflow .......         0.000         0.000
  RDII Inflow ..............         0.000         0.000
  External Inflow ..........         0.000         0.000
  External Outflow .........       226.206        73.712
  Flooding Loss ............        46.546        15.168
  Evaporation Loss .........         0.000         0.000
  Exfiltration Loss ........         0.000         0.000
  Initial Stored Volume ....         0.000         0.000
  Final Stored Volume ......        13.948         4.545
  Continuity Error (%) .....        -0.080
  
  
  **************************           TSS
  Quality Routing Continuity           lbs
  **************************    ----------
  Dry Weather Inflow .......         0.000
  Wet Weather Inflow .......     18231.185
  Groundwater Inflow .......         0.000
  RDII Inflow ..............         0.000
  External Inflow ..........         0.000
  External Outflow .........         1.334
  Flooding Loss ............       140.011
  Exfiltration Loss ........         0.000
  Mass Reacted .............     18074.663
  Initial Stored Mass ......         0.000
  Final Stored Mass ........         0.085
  Continuity Error (%) .....         0.083
  
  
  ***************************
  Time-Step Critical Elements
  ***************************
  Link 3C2 (65.61%)
  Link 5C4 (21.90%)
  Link 7C6 (4.28%)
  
  
  ********************************
  Highest Flow Instability Indexes
  ********************************
  Link O3 (112)
  Link 3C2 (111)
  Link O2 (106)
  Link 5C4 (26)
  Link O5 (26)
  
  
  *********************************
  Most Frequent Nonconverging Nodes
  *********************************
  Node O (0.35%)
  Node J22 (0.28%)
  Node J23 (0.04%)
  Node J13 (0.02%)
  Node 9 (0.02%)
  
  
  *************************
  Routing Time Step Summary
  *************************
  Minimum Time Step           :     2.66 sec
  Average Time Step           :    28.61 sec
  Maximum Time Step           :    60.00 sec
  % of Time in Steady State   :     0.00
  Average Iterations per Step :     2.97
  % of Steps Not Converging   :     0.35
  Time Step Frequencies       :
     60.000 - 23.031 sec      :    68.47 %
     23.031 -  8.841 sec      :    30.63 %
      8.841 -  3.393 sec      :     0.90 %
      3.393 -  1.303 sec      :     0.00 %
      1.303 -  0.500 sec      :     0.00 %
  
  
  ***************************
  Subcatchment Runoff Summary
  ***************************
  
  ------------------------------------------------------------------------------------------------------------------------------
                            Total      Total      Total      Total     Imperv       Perv      Total       Total     Peak  Runoff
                           Precip      Runon       Evap      Infil     Runoff     Runoff     Runoff      Runoff   Runoff   Coeff
  Subcatchment                 in         in         in         in         in         in         in    10^6 gal      CFS
  ------------------------------------------------------------------------------------------------------------------------------
  102                       24.75       0.00       0.00      10.88      13.83       0.01      13.84        1.07     3.84   0.559
  103                       24.75       0.00       0.00      14.54      10.13       0.06      10.19        1.55     6.51   0.412
  115                       30.16       0.00       0.00      18.45      11.44       0.25      11.69        3.27    13.02   0.388
  120                       30.16       0.00       0.00      14.30      15.66       0.17      15.83        2.88    12.24   0.525
  1472                      24.75       0.00       0.00       8.85      15.81       0.06      15.87        1.38     5.66   0.641
  1497                      30.16       0.00       0.00       4.17      25.89       0.06      25.95       10.55    38.05   0.860
  1499                      26.23       0.00       0.00       1.27      24.87       0.05      24.91       17.07    63.83   0.950
  1503                      26.23       0.00       0.00       6.65      19.37       0.17      19.54        0.71     3.07   0.745
  1506                      26.03       0.00       0.00      12.73      13.25       0.02      13.27        3.65    16.87   0.510
  1570                      24.75       0.00       0.00      16.75       7.91       0.08       7.99        1.70     7.96   0.323
  1648                      30.16       0.00       0.00      16.49      13.55       0.10      13.65        1.00     3.97   0.452
  1736                      30.16       0.00       0.00      13.49      16.56       0.08      16.65        6.78    25.90   0.552
  1780                      30.16       0.00       0.00      18.00      12.05       0.10      12.15        0.77     3.18   0.403
  54                        26.23       0.00       0.00       3.36      22.77       0.05      22.82       22.54    88.51   0.870
  57                        26.23       0.00       0.00      17.75       8.38       0.09       8.46        2.33     9.90   0.323
  62                        26.23       0.00       0.00      16.38       9.43       0.41       9.84        2.82    18.51   0.375
  93                        30.16       0.00       0.00      13.74      16.26       0.14      16.40        3.66    15.22   0.544
  94                        26.03       0.00       0.00      16.74       9.09       0.18       9.28        3.22    24.84   0.356
  97                        24.75       0.00       0.00      12.55      12.10       0.07      12.18        6.49    29.41   0.492
  
  
  ****************************
  Subcatchment Washoff Summary
  ****************************
  
  ----------------------------------
                                 TSS
  Subcatchment                   lbs
  ----------------------------------
  102                        215.684
  103                        313.686
  115                        656.544
  120                        581.375
  1472                       279.670
  1497                      2065.797
  1499                      3171.988
  1503                       139.994
  1506                       737.990
  1570                       344.288
  1648                       202.966
  1736                      1370.169
  1780                       155.305
  54                        4276.946
  57                         466.737
  62                         570.589
  93                         740.388
  94                         649.242
  97                        1313.197
  ----------------------------------
  System                   18252.555
  
  
  ******************
  Node Depth Summary
  ******************
  
  ---------------------------------------------------------------------------------
                                 Average  Maximum  Maximum  Time of Max    Reported
                                   Depth    Depth      HGL   Occurrence   Max Depth
  Node                 Type         Feet     Feet     Feet  days hr:min        Feet
  ---------------------------------------------------------------------------------
  J13                  JUNCTION     0.02     1.00   889.17   116  16:53        1.00
  J14                  JUNCTION     0.04     0.52   881.52   161  11:35        0.51
  J15                  JUNCTION     0.10     1.00   872.00   111  21:07        1.00
  J18                  JUNCTION     0.04     1.00   875.22   100  15:05        1.00
  J19                  JUNCTION     0.07     0.19   858.47   206  18:22        0.19
  J22                  JUNCTION     0.27     1.40   880.40   118  06:20        1.40
  J23                  JUNCTION     0.05     0.62   868.62   116  17:21        0.62
  J24                  JUNCTION     0.15     0.48   846.48   168  12:32        0.48
  J25                  JUNCTION     0.12     0.30   832.80   116  23:49        0.30
  J26                  JUNCTION     0.17     0.67   822.17   116  23:33        0.67
  O                    OUTFALL      0.00     0.00   810.00     0  00:00        0.00
  11                   STORAGE      0.09     7.03   881.25   164  02:05        7.03
  9                    STORAGE      0.03     7.83   896.00   116  17:16        7.49
  5                    STORAGE      0.10     5.37   873.37   116  17:21        5.35
  4                    STORAGE      4.91    10.00   856.00   137  13:11       10.00
  10                   STORAGE      3.38    10.63   868.91   117  02:19       10.63
  3                    STORAGE      0.22     0.65   833.15   116  23:49        0.65
  1                    STORAGE      2.63     7.16   817.16   164  07:57        7.16
  2                    STORAGE      0.28     1.16   822.66   116  23:02        1.14
  6                    STORAGE      6.32     9.47   880.47   137  09:46        9.46
  7                    STORAGE      4.70    10.00   889.00   116  23:44       10.00
  8                    STORAGE      1.71     7.67   888.67   137  13:54        7.67
  
  
  *******************
  Node Inflow Summary
  *******************
  
  -------------------------------------------------------------------------------------------------
                                  Maximum  Maximum                  Lateral       Total        Flow
                                  Lateral    Total  Time of Max      Inflow      Inflow     Balance
                                   Inflow   Inflow   Occurrence      Volume      Volume       Error
  Node                 Type           CFS      CFS  days hr:min    10^6 gal    10^6 gal     Percent
  -------------------------------------------------------------------------------------------------
  J13                  JUNCTION      0.00    13.64   116  17:16           0        3.21      -0.021
  J14                  JUNCTION      0.00     3.43   161  11:35           0        6.74       0.001
  J15                  JUNCTION      0.00     1.66   116  17:16           0        8.27       0.009
  J18                  JUNCTION      0.00    12.80   164  02:05           0        14.7      -0.020
  J19                  JUNCTION      0.00     1.16   206  18:20           0        26.4      -0.002
  J22                  JUNCTION      0.00     5.22   164  01:31           0        3.55      -0.880
  J23                  JUNCTION      0.00    11.36   116  17:21           0        16.1       0.162
  J24                  JUNCTION      0.00     1.83   168  12:25           0        49.7      -0.002
  J25                  JUNCTION      0.00     2.29   116  23:49           0        52.2       0.511
  J26                  JUNCTION      0.00     3.66   116  23:02           0        52.7      -0.002
  O                    OUTFALL       0.00     5.60    89  02:55           0        73.7       0.000
  11                   STORAGE      58.17    58.17   164  01:30        14.7        14.7       0.104
  9                    STORAGE      24.84    24.84   116  17:15        3.21        3.21       0.021
  5                    STORAGE      35.07    35.07   116  17:15        7.86        16.1      -0.051
  4                    STORAGE      82.34    85.38   116  23:00        19.9        62.4       0.028
  10                   STORAGE      53.26    57.80   164  01:30        14.2        26.4      -0.183
  3                    STORAGE       9.90    10.84   116  23:00        2.33          52      -0.264
  1                    STORAGE      88.51    92.03   116  23:00        22.5        75.3       0.006
  2                    STORAGE       3.07     4.68   116  22:59        0.71        52.6      -0.263
  6                    STORAGE       6.51    10.91   164  01:30        1.55        10.5       0.011
  7                    STORAGE      11.75    11.75   116  17:15        2.77        2.78       0.019
  8                    STORAGE      16.87    20.89   116  17:15        3.65        6.74       0.013
  
  
  **********************
  Node Surcharge Summary
  **********************
  
  Surcharging occurs when water rises above the top of the highest conduit.
  ---------------------------------------------------------------------
                                               Max. Height   Min. Depth
                                   Hours       Above Crown    Below Rim
  Node                 Type      Surcharged           Feet         Feet
  ---------------------------------------------------------------------
  J13                  JUNCTION        1.59          0.000        0.000
  J15                  JUNCTION        1.02          0.000        0.000
  J18                  JUNCTION       29.14          0.000        0.000
  J22                  JUNCTION      225.32          0.000        0.000
  
  
  *********************
  Node Flooding Summary
  *********************
  
  Flooding refers to all water that overflows a node, whether it ponds or not.
  --------------------------------------------------------------------------
                                                             Total   Maximum
                                 Maximum   Time of Max       Flood    Ponded
                        Hours       Rate    Occurrence      Volume     Depth
  Node                 Flooded       CFS   days hr:min    10^6 gal      Feet
  --------------------------------------------------------------------------
  J13                     1.59      9.70    116  17:16       0.118     0.000
  J15                     1.02      1.64    116  17:16       0.024     0.000
  J18                    29.14      8.53    164  02:05       2.474     0.000
  J22                   221.25      2.49    137  09:47       1.361     0.000
  4                     529.51     28.01    205  23:15      10.859     0.000
  7                      50.42      6.40    137  08:45       0.328     0.000
  
  
  **********************
  Storage Volume Summary
  **********************
  
  ------------------------------------------------------------------------------------------------
                         Average    Avg   Evap  Exfil     Maximum    Max    Time of Max    Maximum
                          Volume   Pcnt   Pcnt   Pcnt      Volume   Pcnt     Occurrence    Outflow
  Storage Unit          1000 ft³   Full   Loss   Loss    1000 ft³   Full    days hr:min        CFS
  ------------------------------------------------------------------------------------------------
  11                       0.443    0.2    0.0    0.0      74.194   26.9     164  02:05      12.80
  9                        0.006    0.0    0.0    0.0       9.646   74.4     116  17:16      13.64
  5                        0.227    0.5    0.0    0.0      22.887   50.3     116  17:21      12.94
  4                      509.295   45.4    0.0    0.0    1122.846  100.0     137  13:11       1.83
  10                      92.731   13.4    0.0    0.0     440.796   63.9     117  02:19       1.16
  3                       17.850    1.6    0.0    0.0      52.359    4.8     116  23:49       2.29
  1                      215.433   20.6    0.0    0.0     669.813   63.9     164  07:57       5.60
  2                        0.154    0.5    0.0    0.0       1.389    4.9     116  23:02       3.66
  6                       93.793   16.5    0.0    0.0     178.672   31.5     137  09:46       2.43
  7                       31.569   42.6    0.0    0.0      74.093  100.0     116  23:44       5.22
  8                        6.159    4.4    0.0    0.0      85.216   60.5     137  13:54       3.43
  
  
  ***********************
  Outfall Loading Summary
  ***********************
  
  -------------------------------------------------------------------------
                         Flow       Avg       Max       Total         Total
                         Freq      Flow      Flow      Volume           TSS
  Outfall Node           Pcnt       CFS       CFS    10^6 gal           lbs
  -------------------------------------------------------------------------
  O                     90.50      0.67      5.60      73.707         1.333
  -------------------------------------------------------------------------
  System                90.50      0.67      5.60      73.707         1.333
  
  
  ********************
  Link Flow Summary
  ********************
  
  -----------------------------------------------------------------------------
                                 Maximum  Time of Max   Maximum    Max/    Max/
                                  |Flow|   Occurrence   |Veloc|    Full    Full
  Link                 Type          CFS  days hr:min    ft/sec    Flow   Depth
  -----------------------------------------------------------------------------
  11C10                CONDUIT      5.95   156  17:42      9.38    1.07    1.00
  5C4                  CONDUIT     11.36   116  17:22     16.66    0.71    0.81
  4C3                  CONDUIT      1.81   168  13:07     21.51    0.32    0.47
  3C2                  CONDUIT      2.29   116  23:49      5.10    0.20    0.65
  2C1                  CONDUIT      3.64   116  23:03      5.19    0.65    0.84
  9C8                  CONDUIT      6.28   111  21:00      9.24    0.83    1.00
  8C6                  CONDUIT      2.86   161  11:35      4.47    0.49    0.76
  6C5                  CONDUIT      1.62   116  17:16      2.98    0.70    1.00
  7C6                  CONDUIT      5.22   164  01:31      6.62    0.19    1.00
  10C4                 CONDUIT      1.16   206  18:22      0.61    0.00    0.51
  O9                   ORIFICE     13.64   116  17:16                          
  O8                   ORIFICE      3.43   161  11:35                          
  O6                   ORIFICE      0.43    93  18:02                          
  O10                  ORIFICE      1.16   206  18:20                          
  O11                  ORIFICE     12.80   164  02:05                          
  O7                   ORIFICE      5.22   164  01:31                          
  O5                   ORIFICE     11.36   116  17:21                          
  O4                   ORIFICE      1.83   168  12:25                          
  O3                   ORIFICE      2.29   116  23:49                          
  O2                   ORIFICE      3.66   116  23:02                          
  O1                   ORIFICE      5.60    89  02:55                          
  
  
  ***************************
  Flow Classification Summary
  ***************************
  
  -------------------------------------------------------------------------------------
                      Adjusted    ---------- Fraction of Time in Flow Class ---------- 
                       /Actual         Up    Down  Sub   Sup   Up    Down  Norm  Inlet 
  Conduit               Length    Dry  Dry   Dry   Crit  Crit  Crit  Crit  Ltd   Ctrl  
  -------------------------------------------------------------------------------------
  11C10                   1.00   0.11  0.10  0.00  0.79  0.01  0.00  0.00  0.88  0.00
  5C4                     1.00   0.11  0.07  0.00  0.79  0.03  0.00  0.00  0.89  0.00
  4C3                     1.00   0.11  0.30  0.00  0.01  0.58  0.00  0.00  0.88  0.00
  3C2                     1.00   0.11  0.00  0.00  0.02  0.87  0.00  0.00  0.88  0.00
  2C1                     1.00   0.11  0.00  0.00  0.88  0.01  0.00  0.00  0.88  0.00
  9C8                     1.00   0.08  0.42  0.00  0.50  0.00  0.00  0.00  0.90  0.00
  8C6                     1.00   0.11  0.20  0.00  0.69  0.00  0.00  0.00  0.89  0.00
  6C5                     1.00   0.11  0.18  0.00  0.17  0.55  0.00  0.00  0.22  0.00
  7C6                     1.00   0.11  0.46  0.00  0.42  0.00  0.00  0.00  0.50  0.00
  10C4                    1.00   0.11  0.09  0.00  0.80  0.00  0.00  0.00  0.89  0.00
  
  
  *************************
  Conduit Surcharge Summary
  *************************
  
  ----------------------------------------------------------------------------
                                                           Hours        Hours 
                         --------- Hours Full --------   Above Full   Capacity
  Conduit                Both Ends  Upstream  Dnstream   Normal Flow   Limited
  ----------------------------------------------------------------------------
  11C10                      29.17     29.17   4158.05      0.19         0.01
  5C4                         0.01      0.01   4315.86      0.01         0.01
  3C2                         0.01      0.01      0.69      0.01         0.01
  2C1                         0.01      0.01   3999.38      0.01         0.01
  9C8                         1.58      1.58   3752.13      0.01         0.01
  8C6                         0.01      0.01   4430.36      0.01         0.01
  6C5                         1.02      1.02     16.83      0.01         0.01
  7C6                         0.01      0.01   4118.15      0.01         0.01
  10C4                        0.01      0.01   2006.91      0.01         0.01
  
  
  ***************************
  Link Pollutant Load Summary
  ***************************
  
  ----------------------------------
                                 TSS
  Link                           lbs
  ----------------------------------
  11C10                     1394.226
  5C4                       1064.302
  4C3                          0.043
  3C2                          0.417
  2C1                        132.702
  9C8                        617.094
  8C6                         25.645
  6C5                          6.497
  7C6                         71.722
  10C4                         4.343
  O9                         636.897
  O8                          25.794
  O6                           0.379
  O10                          4.498
  O11                       1510.545
  O7                          71.711
  O5                        1063.629
  O4                           0.042
  O3                           0.411
  O2                         130.870
  O1                           1.333
  

  Analysis begun on:  Tue Oct 29 16:02:20 2024
  Analysis ended on:  Tue Oct 29 16:17:28 2024
  Total elapsed time: 00:15:08