
  EPA STORM WATER MANAGEMENT MODEL - VERSION 5.2 (Build 5.2.4)
  PYSWMM TOOLKIT API - VERSION v1.0 (2023-11-27)
  ------------------------------------------------------------

  Gamma 
  Anon 
  WARNING 07: routing time step reduced to the wet weather time step 
  
  ****************
  Analysis Options
  ****************
  Flow Units ............... CFS
  Process Models:
    Rainfall/Runoff ........ YES
    RDII ................... NO
    Snowmelt ............... NO
    Groundwater ............ NO
    Flow Routing ........... YES
    Ponding Allowed ........ YES
    Water Quality .......... YES
  Infiltration Method ...... GREEN_AMPT
  Flow Routing Method ...... DYNWAVE
  Surcharge Method ......... EXTRAN
  Starting Date ............ 03/01/2020 00:00:00
  Ending Date .............. 10/15/2020 00:00:00
  Antecedent Dry Days ...... 5.0
  Report Time Step ......... 00:05:00
  Wet Time Step ............ 00:01:00
  Dry Time Step ............ 00:01:00
  Routing Time Step ........ 60.00 sec
  Variable Time Step ....... YES
  Maximum Trials ........... 4
  Number of Threads ........ 1
  Head Tolerance ........... 0.005000 ft
  
  
  **************************        Volume         Depth
  Runoff Quantity Continuity     acre-feet        inches
  **************************     ---------       -------
  Total Precipitation ......       383.444        22.342
  Evaporation Loss .........         0.000         0.000
  Infiltration Loss ........       149.010         8.682
  Surface Runoff ...........       233.886        13.628
  Final Storage ............         0.632         0.037
  Continuity Error (%) .....        -0.022
  
  
  **************************           TSS
  Runoff Quality Continuity            lbs
  **************************    ----------
  Initial Buildup ..........      3394.520
  Surface Buildup ..........     15660.110
  Wet Deposition ...........         0.000
  Sweeping Removal .........         0.000
  Infiltration Loss ........         0.000
  BMP Removal ..............         0.000
  Surface Runoff ...........     15378.742
  Remaining Buildup ........      3675.888
  Continuity Error (%) .....         0.000
  
  
  **************************        Volume        Volume
  Flow Routing Continuity        acre-feet      10^6 gal
  **************************     ---------     ---------
  Dry Weather Inflow .......         0.000         0.000
  Wet Weather Inflow .......       233.578        76.115
  Groundwater Inflow .......         0.000         0.000
  RDII Inflow ..............         0.000         0.000
  External Inflow ..........         0.000         0.000
  External Outflow .........       201.069        65.521
  Flooding Loss ............        21.956         7.155
  Evaporation Loss .........         0.000         0.000
  Exfiltration Loss ........         0.000         0.000
  Initial Stored Volume ....         0.000         0.000
  Final Stored Volume ......        10.584         3.449
  Continuity Error (%) .....        -0.013
  
  
  **************************           TSS
  Quality Routing Continuity           lbs
  **************************    ----------
  Dry Weather Inflow .......         0.000
  Wet Weather Inflow .......     15358.374
  Groundwater Inflow .......         0.000
  RDII Inflow ..............         0.000
  External Inflow ..........         0.000
  External Outflow .........         0.009
  Flooding Loss ............       117.813
  Exfiltration Loss ........         0.000
  Mass Reacted .............     15222.965
  Initial Stored Mass ......         0.000
  Final Stored Mass ........         0.482
  Continuity Error (%) .....         0.111
  
  
  ***************************
  Time-Step Critical Elements
  ***************************
  Link 3C2 (88.50%)
  Link 5C4 (5.61%)
  Link 7C6 (2.08%)
  
  
  ********************************
  Highest Flow Instability Indexes
  ********************************
  Link O3 (138)
  Link 3C2 (138)
  Link O2 (138)
  Link 7C6 (43)
  Link O7 (11)
  
  
  *********************************
  Most Frequent Nonconverging Nodes
  *********************************
  Node O (0.41%)
  Node J22 (0.38%)
  Node J23 (0.01%)
  Node J13 (0.01%)
  Node 9 (0.01%)
  
  
  *************************
  Routing Time Step Summary
  *************************
  Minimum Time Step           :     4.17 sec
  Average Time Step           :    28.21 sec
  Maximum Time Step           :    60.00 sec
  % of Time in Steady State   :     0.00
  Average Iterations per Step :     3.13
  % of Steps Not Converging   :     0.41
  Time Step Frequencies       :
     60.000 - 23.031 sec      :    92.07 %
     23.031 -  8.841 sec      :     7.22 %
      8.841 -  3.393 sec      :     0.71 %
      3.393 -  1.303 sec      :     0.00 %
      1.303 -  0.500 sec      :     0.00 %
  
  
  ***************************
  Subcatchment Runoff Summary
  ***************************
  
  ------------------------------------------------------------------------------------------------------------------------------
                            Total      Total      Total      Total     Imperv       Perv      Total       Total     Peak  Runoff
                           Precip      Runon       Evap      Infil     Runoff     Runoff     Runoff      Runoff   Runoff   Coeff
  Subcatchment                 in         in         in         in         in         in         in    10^6 gal      CFS
  ------------------------------------------------------------------------------------------------------------------------------
  102                       21.94       0.00       0.00       9.65      12.26       0.00      12.26        0.95     4.55   0.559
  103                       21.94       0.00       0.00      12.92       8.98       0.02       9.00        1.37     6.59   0.410
  115                       25.14       0.00       0.00      15.57       9.53       0.02       9.55        2.67    12.06   0.380
  120                       25.14       0.00       0.00      12.07      13.05       0.00      13.05        2.37    11.08   0.519
  1472                      21.94       0.00       0.00       7.89      14.01       0.01      14.02        1.22     5.88   0.639
  1497                      25.14       0.00       0.00       3.52      21.58       0.00      21.58        8.77    40.25   0.858
  1499                      20.90       0.00       0.00       1.04      19.80       0.00      19.80       13.57    78.33   0.948
  1503                      20.90       0.00       0.00       5.43      15.43       0.00      15.43        0.56     3.26   0.738
  1506                      20.94       0.00       0.00      10.26      10.65       0.00      10.65        2.93    10.83   0.509
  1570                      21.94       0.00       0.00      14.89       7.01       0.02       7.03        1.50     7.20   0.320
  1648                      25.14       0.00       0.00      13.83      11.29       0.00      11.29        0.83     3.88   0.449
  1736                      25.14       0.00       0.00      11.31      13.80       0.00      13.80        5.62    26.25   0.549
  1780                      25.14       0.00       0.00      15.08      10.04       0.00      10.04        0.64     2.97   0.399
  54                        20.90       0.00       0.00       2.72      18.13       0.00      18.13       17.91   103.05   0.868
  57                        20.90       0.00       0.00      14.21       6.67       0.00       6.67        1.84    10.52   0.319
  62                        20.90       0.00       0.00      13.38       7.51       0.00       7.51        2.15    12.59   0.359
  93                        25.14       0.00       0.00      11.56      13.55       0.00      13.55        3.02    14.14   0.539
  94                        20.94       0.00       0.00      13.55       7.31       0.06       7.37        2.56    14.14   0.352
  97                        21.94       0.00       0.00      11.18      10.73       0.01      10.74        5.73    27.56   0.489
  
  
  ****************************
  Subcatchment Washoff Summary
  ****************************
  
  ----------------------------------
                                 TSS
  Subcatchment                   lbs
  ----------------------------------
  102                        190.987
  103                        276.997
  115                        535.463
  120                        478.900
  1472                       247.001
  1497                      1772.079
  1499                      2738.924
  1503                       113.257
  1506                       591.482
  1570                       302.909
  1648                       167.845
  1736                      1135.368
  1780                       128.250
  54                        3613.633
  57                         366.862
  62                         434.895
  93                         611.520
  94                         514.826
  97                        1157.545
  ----------------------------------
  System                   15378.742
  
  
  ******************
  Node Depth Summary
  ******************
  
  ---------------------------------------------------------------------------------
                                 Average  Maximum  Maximum  Time of Max    Reported
                                   Depth    Depth      HGL   Occurrence   Max Depth
  Node                 Type         Feet     Feet     Feet  days hr:min        Feet
  ---------------------------------------------------------------------------------
  J13                  JUNCTION     0.01     1.00   889.17    27  05:20        1.00
  J14                  JUNCTION     0.04     0.18   881.18    78  21:38        0.18
  J15                  JUNCTION     0.05     1.00   872.00   131  17:33        1.00
  J18                  JUNCTION     0.03     1.00   875.22    27  05:10        1.00
  J19                  JUNCTION     0.07     0.14   858.42    78  23:45        0.14
  J22                  JUNCTION     1.13     1.40   880.40    37  20:18        1.40
  J23                  JUNCTION     0.03     0.64   868.64   140  12:47        0.63
  J24                  JUNCTION     0.16     0.23   846.23   140  17:57        0.23
  J25                  JUNCTION     0.12     0.20   832.70   131  21:50        0.20
  J26                  JUNCTION     0.17     0.59   822.09   140  12:46        0.58
  O                    OUTFALL      0.00     0.00   810.00     0  00:00        0.00
  11                   STORAGE      0.07     5.68   879.90   166  13:03        5.67
  9                    STORAGE      0.02     3.78   891.95    27  05:31        3.62
  5                    STORAGE      0.07     5.34   873.34   140  12:47        5.21
  4                    STORAGE      4.48     7.48   853.48   140  14:42        7.48
  10                   STORAGE      4.22     9.14   867.42    78  23:57        9.14
  3                    STORAGE      0.21     0.41   832.91   140  13:10        0.41
  1                    STORAGE      2.54     5.43   815.43    79  07:30        5.43
  2                    STORAGE      0.27     1.03   822.53   140  12:45        1.02
  6                    STORAGE      8.68     9.48   880.48   131  17:30        9.48
  7                    STORAGE      1.86     8.52   887.52    84  17:20        8.52
  8                    STORAGE      2.35     7.50   888.50    78  21:36        7.50
  
  
  *******************
  Node Inflow Summary
  *******************
  
  -------------------------------------------------------------------------------------------------
                                  Maximum  Maximum                  Lateral       Total        Flow
                                  Lateral    Total  Time of Max      Inflow      Inflow     Balance
                                   Inflow   Inflow   Occurrence      Volume      Volume       Error
  Node                 Type           CFS      CFS  days hr:min    10^6 gal    10^6 gal     Percent
  -------------------------------------------------------------------------------------------------
  J13                  JUNCTION      0.00     8.70    27  05:31           0        2.55       0.028
  J14                  JUNCTION      0.00     0.39    78  21:36           0        5.41      -0.000
  J15                  JUNCTION      0.00     1.71   140  12:45           0        2.83      -0.003
  J18                  JUNCTION      0.00    11.28   166  13:04           0        12.1      -0.013
  J19                  JUNCTION      0.00     0.56    78  23:45           0        21.9      -0.002
  J22                  JUNCTION      0.00     2.87   131  17:31           0        6.25       0.650
  J23                  JUNCTION      0.00    11.30   140  12:47           0        9.72       0.022
  J24                  JUNCTION      0.00     0.65   140  17:55           0        45.8       0.000
  J25                  JUNCTION      0.00     1.09   131  21:54           0        47.8       0.839
  J26                  JUNCTION      0.00     3.48   140  12:45           0        48.1      -0.002
  O                    OUTFALL       0.00     0.96   142  08:55           0        65.5       0.000
  11                   STORAGE      56.24    56.24   140  12:45        12.1        12.1       0.134
  9                    STORAGE      14.14    14.14    27  05:30        2.55        2.55       0.016
  5                    STORAGE      33.43    33.43   140  12:45        6.93        9.76       0.061
  4                    STORAGE      90.91   102.24   140  12:45        15.7        47.4       0.046
  10                   STORAGE      54.39    58.80   140  12:45        11.8        22.2      -0.161
  3                    STORAGE      10.52    11.11   140  12:45        1.83        47.6      -0.440
  1                    STORAGE     103.05   106.45   140  12:45        17.9          66       0.003
  2                    STORAGE       3.26     4.14   140  12:45       0.561        47.9      -0.429
  6                    STORAGE       6.59     6.91   140  12:41        1.37        7.59      -0.071
  7                    STORAGE      11.75    11.75   140  12:45        2.44        2.45       0.010
  8                    STORAGE      10.83    17.35   140  12:26        2.93        5.43      -0.000
  
  
  **********************
  Node Surcharge Summary
  **********************
  
  Surcharging occurs when water rises above the top of the highest conduit.
  ---------------------------------------------------------------------
                                               Max. Height   Min. Depth
                                   Hours       Above Crown    Below Rim
  Node                 Type      Surcharged           Feet         Feet
  ---------------------------------------------------------------------
  J13                  JUNCTION        0.92          0.000        0.000
  J15                  JUNCTION        0.41          0.000        0.000
  J18                  JUNCTION       23.54          0.000        0.000
  J22                  JUNCTION     1715.12          0.000        0.000
  
  
  *********************
  Node Flooding Summary
  *********************
  
  Flooding refers to all water that overflows a node, whether it ponds or not.
  --------------------------------------------------------------------------
                                                             Total   Maximum
                                 Maximum   Time of Max       Flood    Ponded
                        Hours       Rate    Occurrence      Volume     Depth
  Node                 Flooded       CFS   days hr:min    10^6 gal      Feet
  --------------------------------------------------------------------------
  J13                     0.92      4.38     27  05:31       0.049     0.000
  J15                     0.41      1.70    140  12:45       0.011     0.000
  J18                    23.53      6.47    166  13:04       1.709     0.000
  J22                  1684.48      2.87    131  17:31       5.384     0.000
  
  
  **********************
  Storage Volume Summary
  **********************
  
  ------------------------------------------------------------------------------------------------
                         Average    Avg   Evap  Exfil     Maximum    Max    Time of Max    Maximum
                          Volume   Pcnt   Pcnt   Pcnt      Volume   Pcnt     Occurrence    Outflow
  Storage Unit          1000 ft³   Full   Loss   Loss    1000 ft³   Full    days hr:min        CFS
  ------------------------------------------------------------------------------------------------
  11                       0.310    0.1    0.0    0.0      51.916   18.8     166  13:03      11.28
  9                        0.004    0.0    0.0    0.0       3.443   26.6      27  05:31       8.70
  5                        0.155    0.3    0.0    0.0      22.732   50.0     140  12:47      12.85
  4                      435.065   38.7    0.0    0.0     785.108   69.9     140  14:42       0.65
  10                     111.302   16.1    0.0    0.0     341.160   49.4      78  23:57       0.56
  3                       16.995    1.6    0.0    0.0      32.809    3.0     140  13:10       1.09
  1                      203.167   19.4    0.0    0.0     473.068   45.1      79  07:30       0.96
  2                        0.108    0.4    0.0    0.0       1.156    4.1     140  12:45       3.48
  6                      158.276   27.9    0.0    0.0     179.403   31.6     131  17:30       2.79
  7                        7.275    9.8    0.0    0.0      60.727   82.0      84  17:20       0.35
  8                        7.421    5.3    0.0    0.0      81.018   57.5      78  21:36       0.39
  
  
  ***********************
  Outfall Loading Summary
  ***********************
  
  -------------------------------------------------------------------------
                         Flow       Avg       Max       Total         Total
                         Freq      Flow      Flow      Volume           TSS
  Outfall Node           Pcnt       CFS       CFS    10^6 gal           lbs
  -------------------------------------------------------------------------
  O                     95.98      0.50      0.96      65.516         0.009
  -------------------------------------------------------------------------
  System                95.98      0.50      0.96      65.516         0.009
  
  
  ********************
  Link Flow Summary
  ********************
  
  -----------------------------------------------------------------------------
                                 Maximum  Time of Max   Maximum    Max/    Max/
                                  |Flow|   Occurrence   |Veloc|    Full    Full
  Link                 Type          CFS  days hr:min    ft/sec    Flow   Depth
  -----------------------------------------------------------------------------
  11C10                CONDUIT      5.59   101  16:10      7.22    1.01    1.00
  5C4                  CONDUIT     11.30   140  12:47     17.70    0.70    0.82
  4C3                  CONDUIT      0.65   140  17:57      4.23    0.12    0.32
  3C2                  CONDUIT      1.09   131  21:56      4.34    0.10    0.60
  2C1                  CONDUIT      3.45   140  12:46      5.16    0.62    0.79
  9C8                  CONDUIT      6.64   140  12:25      8.61    0.88    1.00
  8C6                  CONDUIT      0.39    78  21:38      1.10    0.07    0.59
  6C5                  CONDUIT      1.63   140  12:45      2.10    0.70    1.00
  7C6                  CONDUIT      2.78   131  17:31      1.81    0.10    1.00
  10C4                 CONDUIT      0.56    78  23:45      0.20    0.00    0.51
  O9                   ORIFICE      8.70    27  05:31                          
  O8                   ORIFICE      0.39    78  21:36                          
  O6                   ORIFICE      0.11    75  21:35                          
  O10                  ORIFICE      0.56    78  23:45                          
  O11                  ORIFICE     11.28   166  13:04                          
  O7                   ORIFICE      0.35    27  10:40                          
  O5                   ORIFICE     11.30   140  12:47                          
  O4                   ORIFICE      0.65   140  17:55                          
  O3                   ORIFICE      1.09   131  21:54                          
  O2                   ORIFICE      3.48   140  12:45                          
  O1                   ORIFICE      0.96   142  08:55                          
  
  
  ***************************
  Flow Classification Summary
  ***************************
  
  -------------------------------------------------------------------------------------
                      Adjusted    ---------- Fraction of Time in Flow Class ---------- 
                       /Actual         Up    Down  Sub   Sup   Up    Down  Norm  Inlet 
  Conduit               Length    Dry  Dry   Dry   Crit  Crit  Crit  Crit  Ltd   Ctrl  
  -------------------------------------------------------------------------------------
  11C10                   1.00   0.08  0.20  0.00  0.72  0.00  0.00  0.00  0.91  0.00
  5C4                     1.00   0.08  0.16  0.00  0.76  0.01  0.00  0.00  0.92  0.00
  4C3                     1.00   0.08  0.00  0.00  0.00  0.92  0.00  0.00  0.92  0.00
  3C2                     1.00   0.08  0.00  0.00  0.00  0.92  0.00  0.00  0.92  0.00
  2C1                     1.00   0.08  0.00  0.00  0.92  0.00  0.00  0.00  0.92  0.00
  9C8                     1.00   0.08  0.55  0.00  0.37  0.00  0.00  0.00  0.92  0.00
  8C6                     1.00   0.08  0.25  0.00  0.67  0.00  0.00  0.00  0.92  0.00
  6C5                     1.00   0.08  0.41  0.00  0.09  0.43  0.00  0.00  0.45  0.00
  7C6                     1.00   0.08  0.04  0.00  0.88  0.00  0.00  0.00  0.01  0.00
  10C4                    1.00   0.08  0.00  0.00  0.92  0.00  0.00  0.00  0.92  0.00
  
  
  *************************
  Conduit Surcharge Summary
  *************************
  
  ----------------------------------------------------------------------------
                                                           Hours        Hours 
                         --------- Hours Full --------   Above Full   Capacity
  Conduit                Both Ends  Upstream  Dnstream   Normal Flow   Limited
  ----------------------------------------------------------------------------
  11C10                      23.56     23.56   5046.72      0.02         0.01
  5C4                         0.01      0.01   5021.76      0.01         0.01
  3C2                         0.01      0.01      0.06      0.01         0.01
  2C1                         0.01      0.01   4820.38      0.01         0.01
  9C8                         0.91      0.91   5047.63      0.01         0.01
  8C6                         0.01      0.01   5038.63      0.01         0.01
  6C5                         0.41      0.41     13.17      0.01         0.01
  7C6                         0.01      0.01   4813.33      0.01         0.01
  10C4                        0.01      0.01    418.13      0.01         0.01
  
  
  ***************************
  Link Pollutant Load Summary
  ***************************
  
  ----------------------------------
                                 TSS
  Link                           lbs
  ----------------------------------
  11C10                     1179.510
  5C4                        937.799
  4C3                          0.001
  3C2                          0.271
  2C1                        105.622
  9C8                        499.242
  8C6                          0.330
  6C5                          4.472
  7C6                          0.017
  10C4                         0.103
  O9                         508.862
  O8                           0.302
  O6                           0.000
  O10                          0.054
  O11                       1287.217
  O7                           0.031
  O5                         937.417
  O4                           0.001
  O3                           0.261
  O2                         105.146
  O1                           0.009
  

  Analysis begun on:  Wed Mar 13 13:41:02 2024
  Analysis ended on:  Wed Mar 13 13:59:00 2024
  Total elapsed time: 00:17:58