
  EPA STORM WATER MANAGEMENT MODEL - VERSION 5.2 (Build 5.2.4)
  PYSWMM TOOLKIT API - VERSION v1.0 (2023-11-27)
  ------------------------------------------------------------

  Gamma 
  Anon 
  WARNING 07: routing time step reduced to the wet weather time step 
  
  ****************
  Analysis Options
  ****************
  Flow Units ............... CFS
  Process Models:
    Rainfall/Runoff ........ YES
    RDII ................... NO
    Snowmelt ............... NO
    Groundwater ............ NO
    Flow Routing ........... YES
    Ponding Allowed ........ YES
    Water Quality .......... YES
  Infiltration Method ...... GREEN_AMPT
  Flow Routing Method ...... DYNWAVE
  Surcharge Method ......... EXTRAN
  Starting Date ............ 03/01/2020 00:00:00
  Ending Date .............. 10/15/2020 00:00:00
  Antecedent Dry Days ...... 5.0
  Report Time Step ......... 00:05:00
  Wet Time Step ............ 00:01:00
  Dry Time Step ............ 00:01:00
  Routing Time Step ........ 60.00 sec
  Variable Time Step ....... YES
  Maximum Trials ........... 4
  Number of Threads ........ 1
  Head Tolerance ........... 0.005000 ft
  
  
  **************************        Volume         Depth
  Runoff Quantity Continuity     acre-feet        inches
  **************************     ---------       -------
  Total Precipitation ......       383.444        22.342
  Evaporation Loss .........         0.000         0.000
  Infiltration Loss ........       149.010         8.682
  Surface Runoff ...........       233.886        13.628
  Final Storage ............         0.632         0.037
  Continuity Error (%) .....        -0.022
  
  
  **************************           TSS
  Runoff Quality Continuity            lbs
  **************************    ----------
  Initial Buildup ..........      3394.520
  Surface Buildup ..........     15660.110
  Wet Deposition ...........         0.000
  Sweeping Removal .........         0.000
  Infiltration Loss ........         0.000
  BMP Removal ..............         0.000
  Surface Runoff ...........     15378.742
  Remaining Buildup ........      3675.888
  Continuity Error (%) .....         0.000
  
  
  **************************        Volume        Volume
  Flow Routing Continuity        acre-feet      10^6 gal
  **************************     ---------     ---------
  Dry Weather Inflow .......         0.000         0.000
  Wet Weather Inflow .......       233.621        76.129
  Groundwater Inflow .......         0.000         0.000
  RDII Inflow ..............         0.000         0.000
  External Inflow ..........         0.000         0.000
  External Outflow .........       199.752        65.092
  Flooding Loss ............        24.593         8.014
  Evaporation Loss .........         0.000         0.000
  Exfiltration Loss ........         0.000         0.000
  Initial Stored Volume ....         0.000         0.000
  Final Stored Volume ......         9.360         3.050
  Continuity Error (%) .....        -0.036
  
  
  **************************           TSS
  Quality Routing Continuity           lbs
  **************************    ----------
  Dry Weather Inflow .......         0.000
  Wet Weather Inflow .......     15361.188
  Groundwater Inflow .......         0.000
  RDII Inflow ..............         0.000
  External Inflow ..........         0.000
  External Outflow .........         0.076
  Flooding Loss ............       114.556
  Exfiltration Loss ........         0.000
  Mass Reacted .............     15227.855
  Initial Stored Mass ......         0.000
  Final Stored Mass ........         0.481
  Continuity Error (%) .....         0.119
  
  
  ***************************
  Time-Step Critical Elements
  ***************************
  Link 3C2 (88.76%)
  Link 5C4 (4.02%)
  Link 7C6 (3.45%)
  
  
  ********************************
  Highest Flow Instability Indexes
  ********************************
  Link O3 (136)
  Link 3C2 (136)
  Link O2 (136)
  Link 7C6 (23)
  Link O7 (4)
  
  
  *********************************
  Most Frequent Nonconverging Nodes
  *********************************
  Node O (0.20%)
  Node J22 (0.17%)
  Node J23 (0.01%)
  Node J13 (0.01%)
  Node 9 (0.01%)
  
  
  *************************
  Routing Time Step Summary
  *************************
  Minimum Time Step           :     2.70 sec
  Average Time Step           :    28.13 sec
  Maximum Time Step           :    60.00 sec
  % of Time in Steady State   :     0.00
  Average Iterations per Step :     3.12
  % of Steps Not Converging   :     0.20
  Time Step Frequencies       :
     60.000 - 23.031 sec      :    91.95 %
     23.031 -  8.841 sec      :     7.34 %
      8.841 -  3.393 sec      :     0.71 %
      3.393 -  1.303 sec      :     0.00 %
      1.303 -  0.500 sec      :     0.00 %
  
  
  ***************************
  Subcatchment Runoff Summary
  ***************************
  
  ------------------------------------------------------------------------------------------------------------------------------
                            Total      Total      Total      Total     Imperv       Perv      Total       Total     Peak  Runoff
                           Precip      Runon       Evap      Infil     Runoff     Runoff     Runoff      Runoff   Runoff   Coeff
  Subcatchment                 in         in         in         in         in         in         in    10^6 gal      CFS
  ------------------------------------------------------------------------------------------------------------------------------
  102                       21.94       0.00       0.00       9.65      12.26       0.00      12.26        0.95     4.55   0.559
  103                       21.94       0.00       0.00      12.92       8.98       0.02       9.00        1.37     6.59   0.410
  115                       25.14       0.00       0.00      15.57       9.53       0.02       9.55        2.67    12.06   0.380
  120                       25.14       0.00       0.00      12.07      13.05       0.00      13.05        2.37    11.08   0.519
  1472                      21.94       0.00       0.00       7.89      14.01       0.01      14.02        1.22     5.88   0.639
  1497                      25.14       0.00       0.00       3.52      21.58       0.00      21.58        8.77    40.25   0.858
  1499                      20.90       0.00       0.00       1.04      19.80       0.00      19.80       13.57    78.33   0.948
  1503                      20.90       0.00       0.00       5.43      15.43       0.00      15.43        0.56     3.26   0.738
  1506                      20.94       0.00       0.00      10.26      10.65       0.00      10.65        2.93    10.83   0.509
  1570                      21.94       0.00       0.00      14.89       7.01       0.02       7.03        1.50     7.20   0.320
  1648                      25.14       0.00       0.00      13.83      11.29       0.00      11.29        0.83     3.88   0.449
  1736                      25.14       0.00       0.00      11.31      13.80       0.00      13.80        5.62    26.25   0.549
  1780                      25.14       0.00       0.00      15.08      10.04       0.00      10.04        0.64     2.97   0.399
  54                        20.90       0.00       0.00       2.72      18.13       0.00      18.13       17.91   103.05   0.868
  57                        20.90       0.00       0.00      14.21       6.67       0.00       6.67        1.84    10.52   0.319
  62                        20.90       0.00       0.00      13.38       7.51       0.00       7.51        2.15    12.59   0.359
  93                        25.14       0.00       0.00      11.56      13.55       0.00      13.55        3.02    14.14   0.539
  94                        20.94       0.00       0.00      13.55       7.31       0.06       7.37        2.56    14.14   0.352
  97                        21.94       0.00       0.00      11.18      10.73       0.01      10.74        5.73    27.56   0.489
  
  
  ****************************
  Subcatchment Washoff Summary
  ****************************
  
  ----------------------------------
                                 TSS
  Subcatchment                   lbs
  ----------------------------------
  102                        190.987
  103                        276.997
  115                        535.463
  120                        478.900
  1472                       247.001
  1497                      1772.079
  1499                      2738.924
  1503                       113.257
  1506                       591.482
  1570                       302.909
  1648                       167.845
  1736                      1135.368
  1780                       128.250
  54                        3613.633
  57                         366.862
  62                         434.895
  93                         611.520
  94                         514.826
  97                        1157.545
  ----------------------------------
  System                   15378.742
  
  
  ******************
  Node Depth Summary
  ******************
  
  ---------------------------------------------------------------------------------
                                 Average  Maximum  Maximum  Time of Max    Reported
                                   Depth    Depth      HGL   Occurrence   Max Depth
  Node                 Type         Feet     Feet     Feet  days hr:min        Feet
  ---------------------------------------------------------------------------------
  J13                  JUNCTION     0.01     1.00   889.17    27  05:22        1.00
  J14                  JUNCTION     0.04     0.22   881.22    78  18:07        0.22
  J15                  JUNCTION     0.04     1.00   872.00   131  17:33        1.00
  J18                  JUNCTION     0.03     1.00   875.22    27  05:11        1.00
  J19                  JUNCTION     0.07     0.13   858.41    78  17:10        0.13
  J22                  JUNCTION     1.15     1.40   880.40    31  08:43        1.40
  J23                  JUNCTION     0.03     0.63   868.63   140  12:47        0.62
  J24                  JUNCTION     0.16     0.22   846.22   140  12:45        0.22
  J25                  JUNCTION     0.12     0.21   832.71   131  21:54        0.21
  J26                  JUNCTION     0.16     0.58   822.08   140  12:46        0.57
  O                    OUTFALL      0.00     0.00   810.00     0  00:00        0.00
  11                   STORAGE      0.08     5.70   879.92   166  13:03        5.70
  9                    STORAGE      0.02     3.77   891.94    27  05:31        3.60
  5                    STORAGE      0.06     5.31   873.31   140  12:47        5.19
  4                    STORAGE      4.11     7.06   853.06   140  14:31        7.06
  10                   STORAGE      4.20     9.14   867.42    79  00:01        9.14
  3                    STORAGE      0.21     0.42   832.92   131  21:15        0.42
  1                    STORAGE      2.12     4.83   814.83    79  01:31        4.83
  2                    STORAGE      0.27     1.03   822.53   140  12:45        1.02
  6                    STORAGE      8.72     9.52   880.52   140  12:46        9.52
  7                    STORAGE      1.29     4.10   883.10   131  21:31        4.10
  8                    STORAGE      2.60     6.72   887.72    78  21:37        6.72
  
  
  *******************
  Node Inflow Summary
  *******************
  
  -------------------------------------------------------------------------------------------------
                                  Maximum  Maximum                  Lateral       Total        Flow
                                  Lateral    Total  Time of Max      Inflow      Inflow     Balance
                                   Inflow   Inflow   Occurrence      Volume      Volume       Error
  Node                 Type           CFS      CFS  days hr:min    10^6 gal    10^6 gal     Percent
  -------------------------------------------------------------------------------------------------
  J13                  JUNCTION      0.00     8.67    27  05:31           0        2.55       0.027
  J14                  JUNCTION      0.00     0.64    78  18:05           0        5.41      -0.001
  J15                  JUNCTION      0.00     1.74   140  12:46           0        2.12      -0.007
  J18                  JUNCTION      0.00    11.31   166  13:04           0        12.1      -0.015
  J19                  JUNCTION      0.00     0.53    78  17:10           0          22      -0.003
  J22                  JUNCTION      0.00     3.69   140  12:47           0         7.1       0.502
  J23                  JUNCTION      0.00    11.28   140  12:47           0        9.01       0.018
  J24                  JUNCTION      0.00     0.61   140  12:45           0        45.3       0.000
  J25                  JUNCTION      0.00     1.13   131  21:53           0        47.3       0.841
  J26                  JUNCTION      0.00     3.53   140  12:45           0        47.6      -0.002
  O                    OUTFALL       0.00     1.08    78  17:15           0        65.1       0.000
  11                   STORAGE      56.24    56.24   140  12:45        12.1        12.1       0.120
  9                    STORAGE      14.14    14.14    27  05:30        2.55        2.55       0.012
  5                    STORAGE      33.43    33.43   140  12:45        6.93        9.04       0.071
  4                    STORAGE      90.91   102.30   140  12:45        15.7        46.7       0.040
  10                   STORAGE      54.39    58.84   140  12:45        11.8        22.2      -0.164
  3                    STORAGE      10.52    11.13   140  12:45        1.84        47.1      -0.441
  1                    STORAGE     103.05   106.51   140  12:45        17.9        65.5       0.002
  2                    STORAGE       3.26     4.17   140  12:45       0.561        47.4      -0.430
  6                    STORAGE       6.59     6.84   140  12:45        1.37        7.54      -0.219
  7                    STORAGE      11.75    11.75   140  12:45        2.44        2.46       0.021
  8                    STORAGE      10.83    17.64   140  12:27        2.93        5.44       0.014
  
  
  **********************
  Node Surcharge Summary
  **********************
  
  Surcharging occurs when water rises above the top of the highest conduit.
  ---------------------------------------------------------------------
                                               Max. Height   Min. Depth
                                   Hours       Above Crown    Below Rim
  Node                 Type      Surcharged           Feet         Feet
  ---------------------------------------------------------------------
  J13                  JUNCTION        0.75          0.000        0.000
  J15                  JUNCTION        0.38          0.000        0.000
  J18                  JUNCTION       22.77          0.000        0.000
  J22                  JUNCTION     2629.78          0.000        0.000
  
  
  *********************
  Node Flooding Summary
  *********************
  
  Flooding refers to all water that overflows a node, whether it ponds or not.
  --------------------------------------------------------------------------
                                                             Total   Maximum
                                 Maximum   Time of Max       Flood    Ponded
                        Hours       Rate    Occurrence      Volume     Depth
  Node                 Flooded       CFS   days hr:min    10^6 gal      Feet
  --------------------------------------------------------------------------
  J13                     0.75      3.82     27  05:31       0.038     0.000
  J15                     0.38      1.71    140  12:46       0.009     0.000
  J18                    22.77      6.47    166  13:04       1.692     0.000
  J22                  2621.22      3.69    140  12:47       6.272     0.000
  
  
  **********************
  Storage Volume Summary
  **********************
  
  ------------------------------------------------------------------------------------------------
                         Average    Avg   Evap  Exfil     Maximum    Max    Time of Max    Maximum
                          Volume   Pcnt   Pcnt   Pcnt      Volume   Pcnt     Occurrence    Outflow
  Storage Unit          1000 ft³   Full   Loss   Loss    1000 ft³   Full    days hr:min        CFS
  ------------------------------------------------------------------------------------------------
  11                       0.310    0.1    0.0    0.0      52.315   19.0     166  13:03      11.31
  9                        0.003    0.0    0.0    0.0       3.413   26.3      27  05:31       8.67
  5                        0.146    0.3    0.0    0.0      22.605   49.7     140  12:47      12.98
  4                      394.795   35.2    0.0    0.0     731.724   65.2     140  14:31       0.61
  10                     110.498   16.0    0.0    0.0     341.245   49.5      79  00:01       0.53
  3                       16.855    1.5    0.0    0.0      33.481    3.1     131  21:15       1.13
  1                      166.467   15.9    0.0    0.0     411.094   39.2      79  01:31       1.08
  2                        0.107    0.4    0.0    0.0       1.164    4.1     140  12:45       3.53
  6                      159.122   28.0    0.0    0.0     180.848   31.9     140  12:46       3.36
  7                        3.413    4.6    0.0    0.0      20.865   28.2     131  21:31       0.36
  8                        8.202    5.8    0.0    0.0      62.638   44.5      78  21:37       0.64
  
  
  ***********************
  Outfall Loading Summary
  ***********************
  
  -------------------------------------------------------------------------
                         Flow       Avg       Max       Total         Total
                         Freq      Flow      Flow      Volume           TSS
  Outfall Node           Pcnt       CFS       CFS    10^6 gal           lbs
  -------------------------------------------------------------------------
  O                     96.37      0.50      1.08      65.087         0.076
  -------------------------------------------------------------------------
  System                96.37      0.50      1.08      65.087         0.076
  
  
  ********************
  Link Flow Summary
  ********************
  
  -----------------------------------------------------------------------------
                                 Maximum  Time of Max   Maximum    Max/    Max/
                                  |Flow|   Occurrence   |Veloc|    Full    Full
  Link                 Type          CFS  days hr:min    ft/sec    Flow   Depth
  -----------------------------------------------------------------------------
  11C10                CONDUIT      5.63   101  16:10      7.28    1.02    1.00
  5C4                  CONDUIT     11.28   140  12:47     17.69    0.70    0.82
  4C3                  CONDUIT      0.61   140  12:45      3.96    0.11    0.32
  3C2                  CONDUIT      1.14   131  21:55      4.35    0.10    0.60
  2C1                  CONDUIT      3.52   140  12:46      5.30    0.63    0.79
  9C8                  CONDUIT      6.87   140  12:27      8.94    0.91    1.00
  8C6                  CONDUIT      0.64    78  18:07      4.49    0.11    0.61
  6C5                  CONDUIT      1.74   140  12:46      2.28    0.75    1.00
  7C6                  CONDUIT      3.36   140  12:47      2.18    0.12    1.00
  10C4                 CONDUIT      0.53    78  17:10      0.20    0.00    0.51
  O9                   ORIFICE      8.67    27  05:31                          
  O8                   ORIFICE      0.64    78  18:05                          
  O6                   ORIFICE      0.09   180  00:35                          
  O10                  ORIFICE      0.53    78  17:10                          
  O11                  ORIFICE     11.31   166  13:04                          
  O7                   ORIFICE      0.36    78  15:05                          
  O5                   ORIFICE     11.28   140  12:47                          
  O4                   ORIFICE      0.61   140  12:45                          
  O3                   ORIFICE      1.13   131  21:53                          
  O2                   ORIFICE      3.53   140  12:45                          
  O1                   ORIFICE      1.08    78  17:15                          
  
  
  ***************************
  Flow Classification Summary
  ***************************
  
  -------------------------------------------------------------------------------------
                      Adjusted    ---------- Fraction of Time in Flow Class ---------- 
                       /Actual         Up    Down  Sub   Sup   Up    Down  Norm  Inlet 
  Conduit               Length    Dry  Dry   Dry   Crit  Crit  Crit  Crit  Ltd   Ctrl  
  -------------------------------------------------------------------------------------
  11C10                   1.00   0.08  0.20  0.00  0.72  0.00  0.00  0.00  0.91  0.00
  5C4                     1.00   0.08  0.19  0.00  0.73  0.01  0.00  0.00  0.92  0.00
  4C3                     1.00   0.08  0.00  0.00  0.00  0.92  0.00  0.00  0.92  0.00
  3C2                     1.00   0.08  0.00  0.00  0.00  0.92  0.00  0.00  0.92  0.00
  2C1                     1.00   0.08  0.00  0.00  0.92  0.00  0.00  0.00  0.92  0.00
  9C8                     1.00   0.08  0.55  0.00  0.37  0.00  0.00  0.00  0.92  0.00
  8C6                     1.00   0.08  0.00  0.00  0.92  0.00  0.00  0.00  0.92  0.00
  6C5                     1.00   0.08  0.49  0.00  0.07  0.37  0.00  0.00  0.48  0.00
  7C6                     1.00   0.08  0.03  0.00  0.90  0.00  0.00  0.00  0.05  0.00
  10C4                    1.00   0.08  0.00  0.00  0.92  0.00  0.00  0.00  0.92  0.00
  
  
  *************************
  Conduit Surcharge Summary
  *************************
  
  ----------------------------------------------------------------------------
                                                           Hours        Hours 
                         --------- Hours Full --------   Above Full   Capacity
  Conduit                Both Ends  Upstream  Dnstream   Normal Flow   Limited
  ----------------------------------------------------------------------------
  11C10                      22.80     22.80   5046.72      0.02         0.01
  5C4                         0.01      0.01   5021.79      0.01         0.01
  3C2                         0.01      0.01      0.06      0.01         0.01
  2C1                         0.01      0.01   4772.03      0.01         0.01
  9C8                         0.74      0.74   5045.33      0.01         0.01
  8C6                         0.01      0.01   5039.52      0.01         0.01
  6C5                         0.38      0.38     13.51      0.01         0.01
  7C6                         0.01      0.01   5028.97      0.01         0.01
  10C4                        0.01      0.01    186.04      0.01         0.01
  
  
  ***************************
  Link Pollutant Load Summary
  ***************************
  
  ----------------------------------
                                 TSS
  Link                           lbs
  ----------------------------------
  11C10                     1168.024
  5C4                        930.121
  4C3                          0.001
  3C2                          0.284
  2C1                        105.450
  9C8                        501.652
  8C6                          4.356
  6C5                          4.162
  7C6                          5.167
  10C4                         0.142
  O9                         509.276
  O8                           4.321
  O6                           0.000
  O10                          0.065
  O11                       1274.413
  O7                           5.264
  O5                         929.793
  O4                           0.001
  O3                           0.274
  O2                         105.001
  O1                           0.076
  

  Analysis begun on:  Fri Mar 15 14:07:03 2024
  Analysis ended on:  Fri Mar 15 14:11:29 2024
  Total elapsed time: 00:04:26