
  EPA STORM WATER MANAGEMENT MODEL - VERSION 5.2 (Build 5.2.4)
  PYSWMM TOOLKIT API - VERSION v1.0 (2023-11-27)
  ------------------------------------------------------------

  Gamma 
  Anon 
  WARNING 07: routing time step reduced to the wet weather time step 
  
  ****************
  Analysis Options
  ****************
  Flow Units ............... CFS
  Process Models:
    Rainfall/Runoff ........ YES
    RDII ................... NO
    Snowmelt ............... NO
    Groundwater ............ NO
    Flow Routing ........... YES
    Ponding Allowed ........ YES
    Water Quality .......... YES
  Infiltration Method ...... GREEN_AMPT
  Flow Routing Method ...... DYNWAVE
  Surcharge Method ......... EXTRAN
  Starting Date ............ 03/01/2021 00:00:00
  Ending Date .............. 10/15/2021 00:00:00
  Antecedent Dry Days ...... 5.0
  Report Time Step ......... 00:05:00
  Wet Time Step ............ 00:01:00
  Dry Time Step ............ 00:01:00
  Routing Time Step ........ 60.00 sec
  Variable Time Step ....... YES
  Maximum Trials ........... 4
  Number of Threads ........ 1
  Head Tolerance ........... 0.005000 ft
  
  
  **************************        Volume         Depth
  Runoff Quantity Continuity     acre-feet        inches
  **************************     ---------       -------
  Total Precipitation ......       464.683        27.075
  Evaporation Loss .........         0.000         0.000
  Infiltration Loss ........       177.343        10.333
  Surface Runoff ...........       286.807        16.711
  Final Storage ............         0.632         0.037
  Continuity Error (%) .....        -0.021
  
  
  **************************           TSS
  Runoff Quality Continuity            lbs
  **************************    ----------
  Initial Buildup ..........      3394.520
  Surface Buildup ..........     18533.376
  Wet Deposition ...........         0.000
  Sweeping Removal .........         0.000
  Infiltration Loss ........         0.000
  BMP Removal ..............         0.000
  Surface Runoff ...........     18252.555
  Remaining Buildup ........      3675.341
  Continuity Error (%) .....         0.000
  
  
  **************************        Volume        Volume
  Flow Routing Continuity        acre-feet      10^6 gal
  **************************     ---------     ---------
  Dry Weather Inflow .......         0.000         0.000
  Wet Weather Inflow .......       286.463        93.348
  Groundwater Inflow .......         0.000         0.000
  RDII Inflow ..............         0.000         0.000
  External Inflow ..........         0.000         0.000
  External Outflow .........       256.072        83.445
  Flooding Loss ............        19.417         6.327
  Evaporation Loss .........         0.000         0.000
  Exfiltration Loss ........         0.000         0.000
  Initial Stored Volume ....         0.000         0.000
  Final Stored Volume ......        11.066         3.606
  Continuity Error (%) .....        -0.032
  
  
  **************************           TSS
  Quality Routing Continuity           lbs
  **************************    ----------
  Dry Weather Inflow .......         0.000
  Wet Weather Inflow .......     18230.601
  Groundwater Inflow .......         0.000
  RDII Inflow ..............         0.000
  External Inflow ..........         0.000
  External Outflow .........         0.130
  Flooding Loss ............       142.339
  Exfiltration Loss ........         0.000
  Mass Reacted .............     18075.432
  Initial Stored Mass ......         0.000
  Final Stored Mass ........         0.434
  Continuity Error (%) .....         0.067
  
  
  ***************************
  Time-Step Critical Elements
  ***************************
  Link 3C2 (89.95%)
  Link 5C4 (5.02%)
  
  
  ********************************
  Highest Flow Instability Indexes
  ********************************
  Link 3C2 (138)
  Link O3 (138)
  Link O2 (137)
  Link 7C6 (7)
  Link 5C4 (5)
  
  
  *********************************
  Most Frequent Nonconverging Nodes
  *********************************
  Node O (0.04%)
  Node J13 (0.01%)
  Node 9 (0.01%)
  Node J23 (0.01%)
  Node 8 (0.01%)
  
  
  *************************
  Routing Time Step Summary
  *************************
  Minimum Time Step           :     1.61 sec
  Average Time Step           :    27.30 sec
  Maximum Time Step           :    60.00 sec
  % of Time in Steady State   :     0.00
  Average Iterations per Step :     3.11
  % of Steps Not Converging   :     0.04
  Time Step Frequencies       :
     60.000 - 23.031 sec      :    70.88 %
     23.031 -  8.841 sec      :    28.39 %
      8.841 -  3.393 sec      :     0.73 %
      3.393 -  1.303 sec      :     0.00 %
      1.303 -  0.500 sec      :     0.00 %
  
  
  ***************************
  Subcatchment Runoff Summary
  ***************************
  
  ------------------------------------------------------------------------------------------------------------------------------
                            Total      Total      Total      Total     Imperv       Perv      Total       Total     Peak  Runoff
                           Precip      Runon       Evap      Infil     Runoff     Runoff     Runoff      Runoff   Runoff   Coeff
  Subcatchment                 in         in         in         in         in         in         in    10^6 gal      CFS
  ------------------------------------------------------------------------------------------------------------------------------
  102                       24.75       0.00       0.00      10.88      13.83       0.01      13.84        1.07     3.84   0.559
  103                       24.75       0.00       0.00      14.54      10.13       0.06      10.19        1.55     6.51   0.412
  115                       30.16       0.00       0.00      18.45      11.44       0.25      11.69        3.27    13.02   0.388
  120                       30.16       0.00       0.00      14.30      15.66       0.17      15.83        2.88    12.24   0.525
  1472                      24.75       0.00       0.00       8.85      15.81       0.06      15.87        1.38     5.66   0.641
  1497                      30.16       0.00       0.00       4.17      25.89       0.06      25.95       10.55    38.05   0.860
  1499                      26.23       0.00       0.00       1.27      24.87       0.05      24.91       17.07    63.83   0.950
  1503                      26.23       0.00       0.00       6.65      19.37       0.17      19.54        0.71     3.07   0.745
  1506                      26.03       0.00       0.00      12.73      13.25       0.02      13.27        3.65    16.87   0.510
  1570                      24.75       0.00       0.00      16.75       7.91       0.08       7.99        1.70     7.96   0.323
  1648                      30.16       0.00       0.00      16.49      13.55       0.10      13.65        1.00     3.97   0.452
  1736                      30.16       0.00       0.00      13.49      16.56       0.08      16.65        6.78    25.90   0.552
  1780                      30.16       0.00       0.00      18.00      12.05       0.10      12.15        0.77     3.18   0.403
  54                        26.23       0.00       0.00       3.36      22.77       0.05      22.82       22.54    88.51   0.870
  57                        26.23       0.00       0.00      17.75       8.38       0.09       8.46        2.33     9.90   0.323
  62                        26.23       0.00       0.00      16.38       9.43       0.41       9.84        2.82    18.51   0.375
  93                        30.16       0.00       0.00      13.74      16.26       0.14      16.40        3.66    15.22   0.544
  94                        26.03       0.00       0.00      16.74       9.09       0.18       9.28        3.22    24.84   0.356
  97                        24.75       0.00       0.00      12.55      12.10       0.07      12.18        6.49    29.41   0.492
  
  
  ****************************
  Subcatchment Washoff Summary
  ****************************
  
  ----------------------------------
                                 TSS
  Subcatchment                   lbs
  ----------------------------------
  102                        215.684
  103                        313.686
  115                        656.544
  120                        581.375
  1472                       279.670
  1497                      2065.797
  1499                      3171.988
  1503                       139.994
  1506                       737.990
  1570                       344.288
  1648                       202.966
  1736                      1370.169
  1780                       155.305
  54                        4276.946
  57                         466.737
  62                         570.589
  93                         740.388
  94                         649.242
  97                        1313.197
  ----------------------------------
  System                   18252.555
  
  
  ******************
  Node Depth Summary
  ******************
  
  ---------------------------------------------------------------------------------
                                 Average  Maximum  Maximum  Time of Max    Reported
                                   Depth    Depth      HGL   Occurrence   Max Depth
  Node                 Type         Feet     Feet     Feet  days hr:min        Feet
  ---------------------------------------------------------------------------------
  J13                  JUNCTION     0.01     1.00   889.17   116  16:54        1.00
  J14                  JUNCTION     0.05     0.24   881.24   137  08:30        0.24
  J15                  JUNCTION     0.10     1.00   872.00   111  21:07        1.00
  J18                  JUNCTION     0.04     1.00   875.22   100  15:05        1.00
  J19                  JUNCTION     0.08     0.15   858.43   206  02:20        0.15
  J22                  JUNCTION     0.34     1.40   880.40   116  17:07        1.40
  J23                  JUNCTION     0.05     0.62   868.62   116  17:21        0.62
  J24                  JUNCTION     0.18     0.34   846.34   117  02:50        0.34
  J25                  JUNCTION     0.13     0.31   832.81   116  23:49        0.31
  J26                  JUNCTION     0.19     0.69   822.19   116  23:33        0.69
  O                    OUTFALL      0.00     0.00   810.00     0  00:00        0.00
  11                   STORAGE      0.09     7.03   881.25   164  02:05        7.03
  9                    STORAGE      0.03     7.83   896.00   116  17:16        7.49
  5                    STORAGE      0.10     5.38   873.38   116  17:21        5.36
  4                    STORAGE      2.93     7.59   853.59   117  02:11        7.59
  10                   STORAGE      4.37    11.10   869.38   206  06:04       11.10
  3                    STORAGE      0.25     0.66   833.16   116  23:49        0.66
  1                    STORAGE      2.85     7.17   817.17   117  05:09        7.17
  2                    STORAGE      0.31     1.19   822.69   116  23:02        1.17
  6                    STORAGE      7.53     9.49   880.49   116  23:45        9.49
  7                    STORAGE      8.66    10.00   889.00    88  10:17       10.00
  8                    STORAGE      2.33     7.44   888.44   137  13:59        7.44
  
  
  *******************
  Node Inflow Summary
  *******************
  
  -------------------------------------------------------------------------------------------------
                                  Maximum  Maximum                  Lateral       Total        Flow
                                  Lateral    Total  Time of Max      Inflow      Inflow     Balance
                                   Inflow   Inflow   Occurrence      Volume      Volume       Error
  Node                 Type           CFS      CFS  days hr:min    10^6 gal    10^6 gal     Percent
  -------------------------------------------------------------------------------------------------
  J13                  JUNCTION      0.00    13.63   116  17:16           0        3.21       0.005
  J14                  JUNCTION      0.00     0.75   137  08:30           0        6.73      -0.001
  J15                  JUNCTION      0.00     1.72   116  17:16           0        6.12       0.001
  J18                  JUNCTION      0.00    12.81   164  02:05           0        14.7      -0.013
  J19                  JUNCTION      0.00     0.71   206  02:20           0        26.1      -0.003
  J22                  JUNCTION      0.00     2.91   116  23:46           0        1.44       0.011
  J23                  JUNCTION      0.00    11.38   116  17:21           0        13.9       0.017
  J24                  JUNCTION      0.00     1.37   117  02:45           0        58.9       0.000
  J25                  JUNCTION      0.00     2.40   116  23:49           0        61.3       0.660
  J26                  JUNCTION      0.00     3.72   116  23:01           0        61.8      -0.001
  O                    OUTFALL       0.00     1.89   116  23:30           0        83.4       0.000
  11                   STORAGE      58.17    58.17   164  01:30        14.7        14.7       0.108
  9                    STORAGE      24.84    24.84   116  17:15        3.21        3.21       0.026
  5                    STORAGE      35.07    35.07   116  17:15        7.86          14       0.041
  4                    STORAGE      82.34    85.59   116  23:00        19.9        59.9       0.020
  10                   STORAGE      53.26    57.63   164  01:30        14.2        26.3      -0.158
  3                    STORAGE       9.90    10.92   116  23:00        2.33        61.2      -0.342
  1                    STORAGE      88.51    92.08   116  23:00        22.5        84.3       0.004
  2                    STORAGE       3.07     4.80   116  23:00        0.71        61.6      -0.340
  6                    STORAGE       6.51     6.93   116  17:15        1.55        8.28       0.186
  7                    STORAGE      11.75    11.75   116  17:15        2.77        2.77       0.129
  8                    STORAGE      16.87    21.06   116  17:15        3.65        6.75      -0.017
  
  
  **********************
  Node Surcharge Summary
  **********************
  
  Surcharging occurs when water rises above the top of the highest conduit.
  ---------------------------------------------------------------------
                                               Max. Height   Min. Depth
                                   Hours       Above Crown    Below Rim
  Node                 Type      Surcharged           Feet         Feet
  ---------------------------------------------------------------------
  J13                  JUNCTION        1.54          0.000        0.000
  J15                  JUNCTION        1.11          0.000        0.000
  J18                  JUNCTION       29.82          0.000        0.000
  J22                  JUNCTION      345.58          0.000        0.000
  
  
  *********************
  Node Flooding Summary
  *********************
  
  Flooding refers to all water that overflows a node, whether it ponds or not.
  --------------------------------------------------------------------------
                                                             Total   Maximum
                                 Maximum   Time of Max       Flood    Ponded
                        Hours       Rate    Occurrence      Volume     Depth
  Node                 Flooded       CFS   days hr:min    10^6 gal      Feet
  --------------------------------------------------------------------------
  J13                     1.54      9.52    116  17:16       0.113     0.000
  J15                     1.11      1.71    116  17:22       0.028     0.000
  J18                    29.81      8.69    164  02:05       2.544     0.000
  J22                   344.56      2.91    116  23:46       1.431     0.000
  7                     466.61     11.71    116  17:15       2.212     0.000
  
  
  **********************
  Storage Volume Summary
  **********************
  
  ------------------------------------------------------------------------------------------------
                         Average    Avg   Evap  Exfil     Maximum    Max    Time of Max    Maximum
                          Volume   Pcnt   Pcnt   Pcnt      Volume   Pcnt     Occurrence    Outflow
  Storage Unit          1000 ft³   Full   Loss   Loss    1000 ft³   Full    days hr:min        CFS
  ------------------------------------------------------------------------------------------------
  11                       0.426    0.2    0.0    0.0      74.210   26.9     164  02:05      12.81
  9                        0.006    0.0    0.0    0.0       9.640   74.4     116  17:16      13.63
  5                        0.220    0.5    0.0    0.0      22.946   50.5     116  17:21      12.96
  4                      274.122   24.4    0.0    0.0     800.410   71.3     117  02:11       1.37
  10                     123.458   17.9    0.0    0.0     474.637   68.8     206  06:04       0.71
  3                       19.909    1.8    0.0    0.0      53.837    4.9     116  23:49       2.40
  1                      234.971   22.4    0.0    0.0     671.868   64.1     117  05:09       1.89
  2                        0.158    0.6    0.0    0.0       1.440    5.1     116  23:02       3.72
  6                      119.383   21.0    0.0    0.0     179.685   31.7     116  23:45       3.04
  7                       62.832   84.8    0.0    0.0      74.093  100.0      88  10:17       0.00
  8                        7.927    5.6    0.0    0.0      79.550   56.5     137  13:59       0.75
  
  
  ***********************
  Outfall Loading Summary
  ***********************
  
  -------------------------------------------------------------------------
                         Flow       Avg       Max       Total         Total
                         Freq      Flow      Flow      Volume           TSS
  Outfall Node           Pcnt       CFS       CFS    10^6 gal           lbs
  -------------------------------------------------------------------------
  O                     94.93      0.70      1.89      83.439         0.130
  -------------------------------------------------------------------------
  System                94.93      0.70      1.89      83.439         0.130
  
  
  ********************
  Link Flow Summary
  ********************
  
  -----------------------------------------------------------------------------
                                 Maximum  Time of Max   Maximum    Max/    Max/
                                  |Flow|   Occurrence   |Veloc|    Full    Full
  Link                 Type          CFS  days hr:min    ft/sec    Flow   Depth
  -----------------------------------------------------------------------------
  11C10                CONDUIT      5.64   156  17:41      7.29    1.02    1.00
  5C4                  CONDUIT     11.38   116  17:22     16.67    0.71    0.81
  4C3                  CONDUIT      1.36   117  02:50      4.45    0.24    0.49
  3C2                  CONDUIT      2.40   116  23:49      5.17    0.21    0.66
  2C1                  CONDUIT      3.70   116  23:03      5.25    0.67    0.84
  9C8                  CONDUIT      6.29   111  21:00      8.36    0.83    1.00
  8C6                  CONDUIT      0.74   137  08:30      5.80    0.13    0.62
  6C5                  CONDUIT      1.58   116  17:16      2.05    0.68    1.00
  7C6                  CONDUIT      2.91   116  23:46      1.89    0.11    1.00
  10C4                 CONDUIT      0.71   206  02:20      0.76    0.00    0.51
  O9                   ORIFICE     13.63   116  17:16                          
  O8                   ORIFICE      0.75   137  08:30                          
  O6                   ORIFICE      0.15   116  18:00                          
  O10                  ORIFICE      0.71   206  02:20                          
  O11                  ORIFICE     12.81   164  02:05                          
  O7                   ORIFICE      0.00     0  00:00                          
  O5                   ORIFICE     11.38   116  17:21                          
  O4                   ORIFICE      1.37   117  02:45                          
  O3                   ORIFICE      2.40   116  23:49                          
  O2                   ORIFICE      3.72   116  23:01                          
  O1                   ORIFICE      1.89   116  23:30                          
  
  
  ***************************
  Flow Classification Summary
  ***************************
  
  -------------------------------------------------------------------------------------
                      Adjusted    ---------- Fraction of Time in Flow Class ---------- 
                       /Actual         Up    Down  Sub   Sup   Up    Down  Norm  Inlet 
  Conduit               Length    Dry  Dry   Dry   Crit  Crit  Crit  Crit  Ltd   Ctrl  
  -------------------------------------------------------------------------------------
  11C10                   1.00   0.11  0.16  0.00  0.73  0.00  0.00  0.00  0.88  0.00
  5C4                     1.00   0.11  0.00  0.00  0.88  0.01  0.00  0.00  0.89  0.00
  4C3                     1.00   0.11  0.00  0.00  0.00  0.89  0.00  0.00  0.89  0.00
  3C2                     1.00   0.11  0.00  0.00  0.00  0.89  0.00  0.00  0.89  0.00
  2C1                     1.00   0.11  0.00  0.00  0.89  0.00  0.00  0.00  0.89  0.00
  9C8                     1.00   0.08  0.53  0.00  0.40  0.00  0.00  0.00  0.92  0.00
  8C6                     1.00   0.11  0.10  0.00  0.79  0.00  0.00  0.00  0.89  0.00
  6C5                     1.00   0.11  0.01  0.00  0.14  0.74  0.00  0.00  0.05  0.00
  7C6                     1.00   0.11  0.55  0.00  0.34  0.00  0.00  0.00  0.18  0.00
  10C4                    1.00   0.11  0.00  0.00  0.89  0.00  0.00  0.00  0.89  0.00
  
  
  *************************
  Conduit Surcharge Summary
  *************************
  
  ----------------------------------------------------------------------------
                                                           Hours        Hours 
                         --------- Hours Full --------   Above Full   Capacity
  Conduit                Both Ends  Upstream  Dnstream   Normal Flow   Limited
  ----------------------------------------------------------------------------
  11C10                      29.82     29.82   4872.39      0.05         0.01
  5C4                         0.01      0.01   4817.00      0.01         0.01
  3C2                         0.01      0.01      0.89      0.01         0.01
  2C1                         0.01      0.01   4811.22      0.01         0.01
  9C8                         1.55      1.55   4872.64      0.01         0.01
  8C6                         0.01      0.01   4871.01      0.01         0.01
  6C5                         1.11      1.11     18.31      0.01         0.01
  7C6                         0.01      0.01   2821.96      0.01         0.01
  10C4                        0.01      0.01     98.50      0.01         0.01
  
  
  ***************************
  Link Pollutant Load Summary
  ***************************
  
  ----------------------------------
                                 TSS
  Link                           lbs
  ----------------------------------
  11C10                     1380.822
  5C4                       1061.723
  4C3                          0.109
  3C2                          0.541
  2C1                        131.079
  9C8                        617.806
  8C6                          4.800
  6C5                          6.346
  7C6                          0.000
  10C4                         0.339
  O9                         637.353
  O8                           4.714
  O6                           0.000
  O10                          0.196
  O11                       1501.835
  O7                           0.000
  O5                        1061.221
  O4                           0.105
  O3                           0.535
  O2                         130.637
  O1                           0.130
  

  Analysis begun on:  Tue Mar 19 14:54:20 2024
  Analysis ended on:  Tue Mar 19 15:01:26 2024
  Total elapsed time: 00:07:06