
  EPA STORM WATER MANAGEMENT MODEL - VERSION 5.2 (Build 5.2.4)
  PYSWMM TOOLKIT API - VERSION v1.0 (2023-11-27)
  ------------------------------------------------------------

  Gamma 
  Anon 
  WARNING 07: routing time step reduced to the wet weather time step 
  
  ****************
  Analysis Options
  ****************
  Flow Units ............... CFS
  Process Models:
    Rainfall/Runoff ........ YES
    RDII ................... NO
    Snowmelt ............... NO
    Groundwater ............ NO
    Flow Routing ........... YES
    Ponding Allowed ........ YES
    Water Quality .......... YES
  Infiltration Method ...... GREEN_AMPT
  Flow Routing Method ...... DYNWAVE
  Surcharge Method ......... EXTRAN
  Starting Date ............ 05/14/2020 00:00:00
  Ending Date .............. 05/20/2020 00:00:00
  Antecedent Dry Days ...... 5.0
  Report Time Step ......... 00:05:00
  Wet Time Step ............ 00:01:00
  Dry Time Step ............ 00:01:00
  Routing Time Step ........ 60.00 sec
  Variable Time Step ....... YES
  Maximum Trials ........... 4
  Number of Threads ........ 1
  Head Tolerance ........... 0.005000 ft
  
  
  **************************        Volume         Depth
  Runoff Quantity Continuity     acre-feet        inches
  **************************     ---------       -------
  Total Precipitation ......        58.531         3.410
  Evaporation Loss .........         0.000         0.000
  Infiltration Loss ........        22.889         1.334
  Surface Runoff ...........        35.015         2.040
  Final Storage ............         0.634         0.037
  Continuity Error (%) .....        -0.013
  
  
  **************************           TSS
  Runoff Quality Continuity            lbs
  **************************    ----------
  Initial Buildup ..........      3394.520
  Surface Buildup ..........      1962.939
  Wet Deposition ...........         0.000
  Sweeping Removal .........         0.000
  Infiltration Loss ........         0.000
  BMP Removal ..............         0.000
  Surface Runoff ...........      2311.120
  Remaining Buildup ........      3046.339
  Continuity Error (%) .....         0.000
  
  
  **************************        Volume        Volume
  Flow Routing Continuity        acre-feet      10^6 gal
  **************************     ---------     ---------
  Dry Weather Inflow .......         0.000         0.000
  Wet Weather Inflow .......        34.993        11.403
  Groundwater Inflow .......         0.000         0.000
  RDII Inflow ..............         0.000         0.000
  External Inflow ..........         0.000         0.000
  External Outflow .........         4.478         1.459
  Flooding Loss ............         0.143         0.047
  Evaporation Loss .........         0.000         0.000
  Exfiltration Loss ........         0.000         0.000
  Initial Stored Volume ....         0.000         0.000
  Final Stored Volume ......        30.250         9.857
  Continuity Error (%) .....         0.347
  
  
  **************************           TSS
  Quality Routing Continuity           lbs
  **************************    ----------
  Dry Weather Inflow .......         0.000
  Wet Weather Inflow .......      2309.633
  Groundwater Inflow .......         0.000
  RDII Inflow ..............         0.000
  External Inflow ..........         0.000
  External Outflow .........         0.108
  Flooding Loss ............         3.739
  Exfiltration Loss ........         0.000
  Mass Reacted .............      2304.638
  Initial Stored Mass ......         0.000
  Final Stored Mass ........         0.451
  Continuity Error (%) .....         0.030
  
  
  *************************
  Highest Continuity Errors
  *************************
  Node 6 (1.54%)
  Node 4 (1.44%)
  
  
  ***************************
  Time-Step Critical Elements
  ***************************
  Link 7C6 (54.01%)
  Link 3C2 (24.02%)
  Link 5C4 (18.27%)
  
  
  ********************************
  Highest Flow Instability Indexes
  ********************************
  Link O3 (47)
  Link 3C2 (47)
  Link O2 (45)
  Link 5C4 (21)
  Link O5 (21)
  
  
  *********************************
  Most Frequent Nonconverging Nodes
  *********************************
  Node O (0.40%)
  Node J23 (0.24%)
  Node J13 (0.12%)
  Node 9 (0.06%)
  Node 8 (0.01%)
  
  
  *************************
  Routing Time Step Summary
  *************************
  Minimum Time Step           :     5.23 sec
  Average Time Step           :    23.90 sec
  Maximum Time Step           :    60.00 sec
  % of Time in Steady State   :     0.00
  Average Iterations per Step :     2.48
  % of Steps Not Converging   :     0.40
  Time Step Frequencies       :
     60.000 - 23.031 sec      :    34.51 %
     23.031 -  8.841 sec      :    61.05 %
      8.841 -  3.393 sec      :     4.43 %
      3.393 -  1.303 sec      :     0.00 %
      1.303 -  0.500 sec      :     0.00 %
  
  
  ***************************
  Subcatchment Runoff Summary
  ***************************
  
  ------------------------------------------------------------------------------------------------------------------------------
                            Total      Total      Total      Total     Imperv       Perv      Total       Total     Peak  Runoff
                           Precip      Runon       Evap      Infil     Runoff     Runoff     Runoff      Runoff   Runoff   Coeff
  Subcatchment                 in         in         in         in         in         in         in    10^6 gal      CFS
  ------------------------------------------------------------------------------------------------------------------------------
  102                        3.50       0.00       0.00       1.54       1.93       0.00       1.93        0.15     1.60   0.551
  103                        3.50       0.00       0.00       2.07       1.41       0.00       1.41        0.21     2.32   0.403
  115                        3.28       0.00       0.00       2.03       1.22       0.00       1.22        0.34     2.07   0.373
  120                        3.28       0.00       0.00       1.57       1.67       0.00       1.67        0.30     2.84   0.511
  1472                       3.50       0.00       0.00       1.26       2.20       0.00       2.20        0.19     2.06   0.629
  1497                       3.28       0.00       0.00       0.46       2.77       0.00       2.77        1.13     8.40   0.844
  1499                       3.32       0.00       0.00       0.17       3.10       0.00       3.10        2.12    17.25   0.933
  1503                       3.32       0.00       0.00       0.86       2.41       0.00       2.41        0.09     0.72   0.727
  1506                       3.93       0.00       0.00       1.93       1.97       0.00       1.97        0.54     4.79   0.502
  1570                       3.50       0.00       0.00       2.38       1.10       0.00       1.10        0.24     2.54   0.315
  1648                       3.28       0.00       0.00       1.80       1.45       0.00       1.45        0.11     1.03   0.442
  1736                       3.28       0.00       0.00       1.48       1.77       0.00       1.77        0.72     6.77   0.540
  1780                       3.28       0.00       0.00       1.97       1.29       0.00       1.29        0.08     0.80   0.393
  54                         3.32       0.00       0.00       0.43       2.84       0.00       2.84        2.80    22.81   0.854
  57                         3.32       0.00       0.00       2.26       1.04       0.00       1.04        0.29     2.34   0.314
  62                         3.32       0.00       0.00       2.12       1.17       0.00       1.17        0.34     2.76   0.354
  93                         3.28       0.00       0.00       1.51       1.74       0.00       1.74        0.39     3.73   0.530
  94                         3.93       0.00       0.00       2.55       1.36       0.00       1.36        0.47     4.15   0.345
  97                         3.50       0.00       0.00       1.79       1.69       0.00       1.69        0.90     9.69   0.482
  
  
  ****************************
  Subcatchment Washoff Summary
  ****************************
  
  ----------------------------------
                                 TSS
  Subcatchment                   lbs
  ----------------------------------
  102                         30.089
  103                         43.525
  115                         69.143
  120                         61.632
  1472                        38.887
  1497                       228.255
  1499                       430.238
  1503                        17.786
  1506                       110.154
  1570                        47.558
  1648                        21.599
  1736                       146.104
  1780                        16.503
  54                         567.679
  57                          57.823
  62                          68.153
  93                          78.674
  94                          95.182
  97                         182.134
  ----------------------------------
  System                    2311.120
  
  
  ******************
  Node Depth Summary
  ******************
  
  ---------------------------------------------------------------------------------
                                 Average  Maximum  Maximum  Time of Max    Reported
                                   Depth    Depth      HGL   Occurrence   Max Depth
  Node                 Type         Feet     Feet     Feet  days hr:min        Feet
  ---------------------------------------------------------------------------------
  J13                  JUNCTION     0.06     0.65   888.82    78  13:45        0.65
  J14                  JUNCTION     0.13     0.22   881.22    78  18:07        0.22
  J15                  JUNCTION     0.00     0.00   871.00    74  00:00        0.00
  J18                  JUNCTION     0.15     1.00   875.22    78  09:57        1.00
  J19                  JUNCTION     0.10     0.13   858.41    78  17:10        0.13
  J22                  JUNCTION     0.23     1.33   880.33    79  23:59        1.33
  J23                  JUNCTION     0.07     0.49   868.49    78  13:47        0.49
  J24                  JUNCTION     0.12     0.19   846.19    80  00:00        0.19
  J25                  JUNCTION     0.09     0.17   832.67    78  21:30        0.17
  J26                  JUNCTION     0.14     0.32   821.82    78  13:46        0.32
  O                    OUTFALL      0.00     0.00   810.00    74  00:00        0.00
  11                   STORAGE      0.28     2.45   876.67    78  14:02        2.43
  9                    STORAGE      0.11     1.23   889.40    78  13:15        1.23
  5                    STORAGE      0.18     2.75   870.75    78  13:46        2.71
  4                    STORAGE      2.73     5.20   851.20    79  23:15        5.20
  10                   STORAGE      5.33     8.43   866.71    79  00:02        8.43
  3                    STORAGE      0.17     0.34   832.84    78  21:30        0.34
  1                    STORAGE      2.01     3.95   813.95    79  01:40        3.95
  2                    STORAGE      0.23     0.56   822.06    78  13:45        0.56
  6                    STORAGE      5.67     9.34   880.34    80  00:00        9.34
  7                    STORAGE      1.52     3.27   882.27    78  21:27        3.27
  8                    STORAGE      3.80     6.59   887.59    78  21:37        6.59
  
  
  *******************
  Node Inflow Summary
  *******************
  
  -------------------------------------------------------------------------------------------------
                                  Maximum  Maximum                  Lateral       Total        Flow
                                  Lateral    Total  Time of Max      Inflow      Inflow     Balance
                                   Inflow   Inflow   Occurrence      Volume      Volume       Error
  Node                 Type           CFS      CFS  days hr:min    10^6 gal    10^6 gal     Percent
  -------------------------------------------------------------------------------------------------
  J13                  JUNCTION      0.00     4.09    78  13:15           0        0.47      -0.227
  J14                  JUNCTION      0.00     0.64    78  18:05           0        0.75       0.021
  J15                  JUNCTION      0.00     0.00    74  00:00           0           0       0.000 gal
  J18                  JUNCTION      0.00     6.27    78  14:02           0        1.55      -0.017
  J19                  JUNCTION      0.00     0.50    78  17:10           0        1.03       0.051
  J22                  JUNCTION      0.00     0.37    78  08:55           0        0.37       0.205
  J23                  JUNCTION      0.00     7.84    78  13:47           0        1.09       0.027
  J24                  JUNCTION      0.00     0.42    79  23:55           0       0.719       0.050
  J25                  JUNCTION      0.00     0.77    78  22:15           0        0.86       0.360
  J26                  JUNCTION      0.00     1.25    78  13:45           0       0.946       0.030
  O                    OUTFALL       0.00     0.83    78  17:15           0        1.46       0.000
  11                   STORAGE      13.50    13.50    74  09:45        1.55        1.55       0.066
  9                    STORAGE       4.15     4.15    78  13:15        0.47        0.47      -0.009
  5                    STORAGE      11.76    11.76    78  13:45        1.09        1.09       0.008
  4                    STORAGE      20.02    28.21    78  13:45        2.46        4.58       1.460
  10                   STORAGE      12.13    15.84    74  09:45        1.51        3.02       0.627
  3                    STORAGE       2.34     2.68    78  13:45       0.287        1.01      -0.116
  1                    STORAGE      22.81    24.05    78  13:45         2.8        3.75       0.215
  2                    STORAGE       0.72     1.30    78  13:45      0.0878       0.945      -0.151
  6                    STORAGE       2.32     3.11    78  13:40       0.215        1.33       1.560
  7                    STORAGE       4.13     4.13    78  13:45       0.383       0.388      -0.028
  8                    STORAGE       4.79     8.87    78  13:15       0.543        1.01       0.373
  
  
  **********************
  Node Surcharge Summary
  **********************
  
  Surcharging occurs when water rises above the top of the highest conduit.
  ---------------------------------------------------------------------
                                               Max. Height   Min. Depth
                                   Hours       Above Crown    Below Rim
  Node                 Type      Surcharged           Feet         Feet
  ---------------------------------------------------------------------
  J18                  JUNCTION        1.78          0.000        0.000
  
  
  *********************
  Node Flooding Summary
  *********************
  
  Flooding refers to all water that overflows a node, whether it ponds or not.
  --------------------------------------------------------------------------
                                                             Total   Maximum
                                 Maximum   Time of Max       Flood    Ponded
                        Hours       Rate    Occurrence      Volume     Depth
  Node                 Flooded       CFS   days hr:min    10^6 gal      Feet
  --------------------------------------------------------------------------
  J18                     1.78      1.91     78  14:02       0.047     0.000
  
  
  **********************
  Storage Volume Summary
  **********************
  
  ------------------------------------------------------------------------------------------------
                         Average    Avg   Evap  Exfil     Maximum    Max    Time of Max    Maximum
                          Volume   Pcnt   Pcnt   Pcnt      Volume   Pcnt     Occurrence    Outflow
  Storage Unit          1000 ft³   Full   Loss   Loss    1000 ft³   Full    days hr:min        CFS
  ------------------------------------------------------------------------------------------------
  11                       0.855    0.3    0.0    0.0      13.209    4.8      78  14:02       6.27
  9                        0.014    0.1    0.0    0.0       0.357    2.8      78  13:15       4.09
  5                        0.417    0.9    0.0    0.0      10.119   22.2      78  13:46       7.84
  4                      254.492   22.7    0.0    0.0     507.646   45.2      79  23:15       0.42
  10                     156.844   22.7    0.0    0.0     298.506   43.3      79  00:02       0.50
  3                       13.526    1.2    0.0    0.0      26.791    2.5      78  21:30       0.77
  1                      158.168   15.1    0.0    0.0     325.001   31.0      79  01:40       0.83
  2                        0.091    0.3    0.0    0.0       0.425    1.5      78  13:45       1.25
  6                       74.341   13.1    0.0    0.0     174.171   30.7      80  00:00       0.07
  7                        5.041    6.8    0.0    0.0      13.988   18.9      78  21:27       0.37
  8                       21.214   15.1    0.0    0.0      59.635   42.3      78  21:37       0.64
  
  
  ***********************
  Outfall Loading Summary
  ***********************
  
  -------------------------------------------------------------------------
                         Flow       Avg       Max       Total         Total
                         Freq      Flow      Flow      Volume           TSS
  Outfall Node           Pcnt       CFS       CFS    10^6 gal           lbs
  -------------------------------------------------------------------------
  O                     97.43      0.44      0.83       1.459         0.108
  -------------------------------------------------------------------------
  System                97.43      0.44      0.83       1.459         0.108
  
  
  ********************
  Link Flow Summary
  ********************
  
  -----------------------------------------------------------------------------
                                 Maximum  Time of Max   Maximum    Max/    Max/
                                  |Flow|   Occurrence   |Veloc|    Full    Full
  Link                 Type          CFS  days hr:min    ft/sec    Flow   Depth
  -----------------------------------------------------------------------------
  11C10                CONDUIT      5.07    78  09:55      9.35    0.91    1.00
  5C4                  CONDUIT      7.84    78  13:47     28.14    0.49    0.75
  4C3                  CONDUIT      0.42    80  00:00      3.51    0.08    0.26
  3C2                  CONDUIT      0.78    78  22:15      3.99    0.07    0.36
  2C1                  CONDUIT      1.25    78  13:46      3.63    0.22    0.66
  9C8                  CONDUIT      4.08    78  13:15     11.22    0.54    0.83
  8C6                  CONDUIT      0.64    78  18:07      6.18    0.11    0.61
  6C5                  CONDUIT      0.00     0  00:00      0.00    0.00    0.50
  7C6                  CONDUIT      0.36    78  08:55      0.43    0.01    0.98
  10C4                 CONDUIT      0.50    78  17:10      0.54    0.00    0.41
  O9                   ORIFICE      4.09    78  13:15                          
  O8                   ORIFICE      0.64    78  18:05                          
  O6                   ORIFICE      0.00     0  00:00                          
  O10                  ORIFICE      0.50    78  17:10                          
  O11                  ORIFICE      6.27    78  14:02                          
  O7                   ORIFICE      0.37    78  08:55                          
  O5                   ORIFICE      7.84    78  13:47                          
  O4                   ORIFICE      0.42    79  23:55                          
  O3                   ORIFICE      0.77    78  22:15                          
  O2                   ORIFICE      1.25    78  13:45                          
  O1                   ORIFICE      0.83    78  17:15                          
  
  
  ***************************
  Flow Classification Summary
  ***************************
  
  -------------------------------------------------------------------------------------
                      Adjusted    ---------- Fraction of Time in Flow Class ---------- 
                       /Actual         Up    Down  Sub   Sup   Up    Down  Norm  Inlet 
  Conduit               Length    Dry  Dry   Dry   Crit  Crit  Crit  Crit  Ltd   Ctrl  
  -------------------------------------------------------------------------------------
  11C10                   1.00   0.06  0.00  0.00  0.91  0.03  0.00  0.00  0.89  0.00
  5C4                     1.00   0.06  0.02  0.00  0.86  0.06  0.00  0.00  0.93  0.00
  4C3                     1.00   0.06  0.07  0.00  0.00  0.86  0.00  0.00  0.83  0.00
  3C2                     1.00   0.06  0.00  0.00  0.08  0.85  0.00  0.00  0.94  0.00
  2C1                     1.00   0.06  0.00  0.00  0.93  0.01  0.00  0.00  0.93  0.00
  9C8                     1.00   0.06  0.12  0.00  0.81  0.01  0.00  0.00  0.92  0.00
  8C6                     1.00   0.06  0.00  0.00  0.93  0.01  0.00  0.00  0.93  0.00
  6C5                     1.00   0.06  0.94  0.00  0.00  0.00  0.00  0.00  0.00  0.00
  7C6                     1.00   0.06  0.08  0.00  0.86  0.00  0.00  0.00  0.68  0.00
  10C4                    1.00   0.06  0.00  0.00  0.93  0.00  0.00  0.00  0.93  0.00
  
  
  *************************
  Conduit Surcharge Summary
  *************************
  
  ----------------------------------------------------------------------------
                                                           Hours        Hours 
                         --------- Hours Full --------   Above Full   Capacity
  Conduit                Both Ends  Upstream  Dnstream   Normal Flow   Limited
  ----------------------------------------------------------------------------
  11C10                       1.78      1.78    133.91      0.01         0.01
  5C4                         0.01      0.01    117.54      0.01         0.01
  2C1                         0.01      0.01    117.06      0.01         0.01
  9C8                         0.01      0.01    134.33      0.01         0.01
  8C6                         0.01      0.01    127.73      0.01         0.01
  7C6                         0.01      0.01    122.96      0.01         0.01
  
  
  ***************************
  Link Pollutant Load Summary
  ***************************
  
  ----------------------------------
                                 TSS
  Link                           lbs
  ----------------------------------
  11C10                      187.426
  5C4                        162.884
  4C3                          0.007
  3C2                          0.054
  2C1                         17.106
  9C8                         94.737
  8C6                          0.932
  6C5                          0.000
  7C6                          3.601
  10C4                         0.195
  O9                          94.817
  O8                           0.861
  O6                           0.000
  O10                          0.109
  O11                        190.807
  O7                           3.607
  O5                         162.729
  O4                           0.007
  O3                           0.048
  O2                          16.701
  O1                           0.108
  

  Analysis begun on:  Tue Mar 12 16:39:03 2024
  Analysis ended on:  Tue Mar 12 16:39:12 2024
  Total elapsed time: 00:00:09