
  EPA STORM WATER MANAGEMENT MODEL - VERSION 5.2 (Build 5.2.4)
  PYSWMM TOOLKIT API - VERSION v1.0 (2023-11-27)
  ------------------------------------------------------------

  Gamma 
  Anon 
  WARNING 07: routing time step reduced to the wet weather time step 
  
  ****************
  Analysis Options
  ****************
  Flow Units ............... CFS
  Process Models:
    Rainfall/Runoff ........ YES
    RDII ................... NO
    Snowmelt ............... NO
    Groundwater ............ NO
    Flow Routing ........... YES
    Ponding Allowed ........ YES
    Water Quality .......... YES
  Infiltration Method ...... GREEN_AMPT
  Flow Routing Method ...... DYNWAVE
  Surcharge Method ......... EXTRAN
  Starting Date ............ 03/01/2021 00:00:00
  Ending Date .............. 10/15/2021 00:00:00
  Antecedent Dry Days ...... 5.0
  Report Time Step ......... 00:05:00
  Wet Time Step ............ 00:01:00
  Dry Time Step ............ 00:01:00
  Routing Time Step ........ 60.00 sec
  Variable Time Step ....... YES
  Maximum Trials ........... 4
  Number of Threads ........ 1
  Head Tolerance ........... 0.005000 ft
  
  
  **************************        Volume         Depth
  Runoff Quantity Continuity     acre-feet        inches
  **************************     ---------       -------
  Total Precipitation ......       464.683        27.075
  Evaporation Loss .........         0.000         0.000
  Infiltration Loss ........       177.343        10.333
  Surface Runoff ...........       286.807        16.711
  Final Storage ............         0.632         0.037
  Continuity Error (%) .....        -0.021
  
  
  **************************           TSS
  Runoff Quality Continuity            lbs
  **************************    ----------
  Initial Buildup ..........      3394.520
  Surface Buildup ..........     18533.376
  Wet Deposition ...........         0.000
  Sweeping Removal .........         0.000
  Infiltration Loss ........         0.000
  BMP Removal ..............         0.000
  Surface Runoff ...........     18252.555
  Remaining Buildup ........      3675.341
  Continuity Error (%) .....         0.000
  
  
  **************************        Volume        Volume
  Flow Routing Continuity        acre-feet      10^6 gal
  **************************     ---------     ---------
  Dry Weather Inflow .......         0.000         0.000
  Wet Weather Inflow .......       286.504        93.362
  Groundwater Inflow .......         0.000         0.000
  RDII Inflow ..............         0.000         0.000
  External Inflow ..........         0.000         0.000
  External Outflow .........       246.795        80.422
  Flooding Loss ............        22.127         7.211
  Evaporation Loss .........         0.000         0.000
  Exfiltration Loss ........         0.000         0.000
  Initial Stored Volume ....         0.000         0.000
  Final Stored Volume ......        17.679         5.761
  Continuity Error (%) .....        -0.034
  
  
  **************************           TSS
  Quality Routing Continuity           lbs
  **************************    ----------
  Dry Weather Inflow .......         0.000
  Wet Weather Inflow .......     18232.839
  Groundwater Inflow .......         0.000
  RDII Inflow ..............         0.000
  External Inflow ..........         0.000
  External Outflow .........         0.249
  Flooding Loss ............       135.050
  Exfiltration Loss ........         0.000
  Mass Reacted .............     18081.409
  Initial Stored Mass ......         0.000
  Final Stored Mass ........         0.040
  Continuity Error (%) .....         0.088
  
  
  ***************************
  Time-Step Critical Elements
  ***************************
  Link 3C2 (87.47%)
  Link 5C4 (3.93%)
  Link 7C6 (3.49%)
  
  
  ********************************
  Highest Flow Instability Indexes
  ********************************
  Link O3 (124)
  Link 3C2 (124)
  Link O2 (123)
  Link 5C4 (12)
  Link O5 (12)
  
  
  *********************************
  Most Frequent Nonconverging Nodes
  *********************************
  Node O (0.74%)
  Node J22 (0.65%)
  Node J25 (0.04%)
  Node J13 (0.01%)
  Node 8 (0.01%)
  
  
  *************************
  Routing Time Step Summary
  *************************
  Minimum Time Step           :     1.88 sec
  Average Time Step           :    27.75 sec
  Maximum Time Step           :    60.00 sec
  % of Time in Steady State   :     0.00
  Average Iterations per Step :     3.03
  % of Steps Not Converging   :     0.74
  Time Step Frequencies       :
     60.000 - 23.031 sec      :    77.03 %
     23.031 -  8.841 sec      :    22.18 %
      8.841 -  3.393 sec      :     0.79 %
      3.393 -  1.303 sec      :     0.00 %
      1.303 -  0.500 sec      :     0.00 %
  
  
  ***************************
  Subcatchment Runoff Summary
  ***************************
  
  ------------------------------------------------------------------------------------------------------------------------------
                            Total      Total      Total      Total     Imperv       Perv      Total       Total     Peak  Runoff
                           Precip      Runon       Evap      Infil     Runoff     Runoff     Runoff      Runoff   Runoff   Coeff
  Subcatchment                 in         in         in         in         in         in         in    10^6 gal      CFS
  ------------------------------------------------------------------------------------------------------------------------------
  102                       24.75       0.00       0.00      10.88      13.83       0.01      13.84        1.07     3.84   0.559
  103                       24.75       0.00       0.00      14.54      10.13       0.06      10.19        1.55     6.51   0.412
  115                       30.16       0.00       0.00      18.45      11.44       0.25      11.69        3.27    13.02   0.388
  120                       30.16       0.00       0.00      14.30      15.66       0.17      15.83        2.88    12.24   0.525
  1472                      24.75       0.00       0.00       8.85      15.81       0.06      15.87        1.38     5.66   0.641
  1497                      30.16       0.00       0.00       4.17      25.89       0.06      25.95       10.55    38.05   0.860
  1499                      26.23       0.00       0.00       1.27      24.87       0.05      24.91       17.07    63.83   0.950
  1503                      26.23       0.00       0.00       6.65      19.37       0.17      19.54        0.71     3.07   0.745
  1506                      26.03       0.00       0.00      12.73      13.25       0.02      13.27        3.65    16.87   0.510
  1570                      24.75       0.00       0.00      16.75       7.91       0.08       7.99        1.70     7.96   0.323
  1648                      30.16       0.00       0.00      16.49      13.55       0.10      13.65        1.00     3.97   0.452
  1736                      30.16       0.00       0.00      13.49      16.56       0.08      16.65        6.78    25.90   0.552
  1780                      30.16       0.00       0.00      18.00      12.05       0.10      12.15        0.77     3.18   0.403
  54                        26.23       0.00       0.00       3.36      22.77       0.05      22.82       22.54    88.51   0.870
  57                        26.23       0.00       0.00      17.75       8.38       0.09       8.46        2.33     9.90   0.323
  62                        26.23       0.00       0.00      16.38       9.43       0.41       9.84        2.82    18.51   0.375
  93                        30.16       0.00       0.00      13.74      16.26       0.14      16.40        3.66    15.22   0.544
  94                        26.03       0.00       0.00      16.74       9.09       0.18       9.28        3.22    24.84   0.356
  97                        24.75       0.00       0.00      12.55      12.10       0.07      12.18        6.49    29.41   0.492
  
  
  ****************************
  Subcatchment Washoff Summary
  ****************************
  
  ----------------------------------
                                 TSS
  Subcatchment                   lbs
  ----------------------------------
  102                        215.684
  103                        313.686
  115                        656.544
  120                        581.375
  1472                       279.670
  1497                      2065.797
  1499                      3171.988
  1503                       139.994
  1506                       737.990
  1570                       344.288
  1648                       202.966
  1736                      1370.169
  1780                       155.305
  54                        4276.946
  57                         466.737
  62                         570.589
  93                         740.388
  94                         649.242
  97                        1313.197
  ----------------------------------
  System                   18252.555
  
  
  ******************
  Node Depth Summary
  ******************
  
  ---------------------------------------------------------------------------------
                                 Average  Maximum  Maximum  Time of Max    Reported
                                   Depth    Depth      HGL   Occurrence   Max Depth
  Node                 Type         Feet     Feet     Feet  days hr:min        Feet
  ---------------------------------------------------------------------------------
  J13                  JUNCTION     0.02     1.00   889.17   116  16:54        1.00
  J14                  JUNCTION     0.05     1.00   882.00   116  23:45        1.00
  J15                  JUNCTION     0.11     1.00   872.00   111  21:05        1.00
  J18                  JUNCTION     0.04     1.00   875.22   100  15:02        1.00
  J19                  JUNCTION     0.08     0.39   858.67   117  00:57        0.39
  J22                  JUNCTION     0.43     1.40   880.40    45  12:48        1.40
  J23                  JUNCTION     0.05     0.63   868.63   116  17:22        0.63
  J24                  JUNCTION     0.20     1.00   847.00   116  22:56        1.00
  J25                  JUNCTION     0.14     0.48   832.98   117  13:15        0.48
  J26                  JUNCTION     0.22     1.00   822.50   116  22:41        1.00
  O                    OUTFALL      0.00     0.00   810.00     0  00:00        0.00
  11                   STORAGE      0.10     7.03   881.25   164  02:05        7.03
  9                    STORAGE      0.03     7.83   896.00   116  17:16        7.49
  5                    STORAGE      0.12     5.45   873.45   116  17:21        5.43
  4                    STORAGE      4.26     8.40   854.40   117  00:52        8.40
  10                   STORAGE      4.23     9.01   867.29   117  00:53        9.01
  3                    STORAGE      0.28     1.53   834.03   117  13:15        1.53
  1                    STORAGE      4.26     8.07   818.07   116  23:56        8.07
  2                    STORAGE      0.37     2.39   823.89   116  23:32        2.38
  6                    STORAGE      5.13     9.45   880.45   100  15:45        9.44
  7                    STORAGE      0.64     4.93   883.93   117  00:35        4.93
  8                    STORAGE      1.62     6.35   887.35   137  09:58        6.35
  
  
  *******************
  Node Inflow Summary
  *******************
  
  -------------------------------------------------------------------------------------------------
                                  Maximum  Maximum                  Lateral       Total        Flow
                                  Lateral    Total  Time of Max      Inflow      Inflow     Balance
                                   Inflow   Inflow   Occurrence      Volume      Volume       Error
  Node                 Type           CFS      CFS  days hr:min    10^6 gal    10^6 gal     Percent
  -------------------------------------------------------------------------------------------------
  J13                  JUNCTION      0.00    13.63   116  17:16           0        3.21      -0.064
  J14                  JUNCTION      0.00     3.63   137  10:00           0        6.76      -0.012
  J15                  JUNCTION      0.00     1.89   116  17:22           0        10.2       0.003
  J18                  JUNCTION      0.00    12.81   164  02:05           0        14.7      -0.012
  J19                  JUNCTION      0.00     5.10   117  00:55           0        26.5      -0.002
  J22                  JUNCTION      0.00     2.25   100  15:46           0        3.39       0.622
  J23                  JUNCTION      0.00    11.45   116  17:21           0        17.9      -0.002
  J24                  JUNCTION      0.00     9.94   117  00:52           0        61.7       0.001
  J25                  JUNCTION      0.00     5.34   117  13:15           0        62.8       0.582
  J26                  JUNCTION      0.00     6.15   116  23:32           0        63.3       0.002
  O                    OUTFALL       0.00     9.39   116  23:56           0        80.4       0.000
  11                   STORAGE      58.17    58.17   164  01:30        14.7        14.7       0.090
  9                    STORAGE      24.84    24.84   116  17:15        3.21        3.21       0.015
  5                    STORAGE      35.07    35.07   116  17:15        7.86          18       0.030
  4                    STORAGE      82.34    87.81   116  23:00        19.9        64.3       0.066
  10                   STORAGE      53.26    57.70   164  01:30        14.2        26.4      -0.165
  3                    STORAGE       9.90    15.43   116  23:00        2.33        62.7      -0.309
  1                    STORAGE      88.51    92.25   116  23:00        22.5        83.5       0.013
  2                    STORAGE       3.07     7.57   116  23:00       0.711        63.1      -0.301
  6                    STORAGE       6.51     8.86   116  17:15        1.55        10.7      -0.104
  7                    STORAGE      11.75    11.75   116  17:15        2.77        2.78       0.058
  8                    STORAGE      16.87    21.08   116  17:15        3.65        6.77       0.030
  
  
  **********************
  Node Surcharge Summary
  **********************
  
  Surcharging occurs when water rises above the top of the highest conduit.
  ---------------------------------------------------------------------
                                               Max. Height   Min. Depth
                                   Hours       Above Crown    Below Rim
  Node                 Type      Surcharged           Feet         Feet
  ---------------------------------------------------------------------
  J13                  JUNCTION        1.01          0.000        0.000
  J14                  JUNCTION        1.41          0.000        0.000
  J15                  JUNCTION        1.29          0.000        0.000
  J18                  JUNCTION       28.46          0.000        0.000
  J22                  JUNCTION      512.63          0.000        0.000
  J24                  JUNCTION       27.21          0.000        0.000
  J26                  JUNCTION       85.18          0.000        0.000
  
  
  *********************
  Node Flooding Summary
  *********************
  
  Flooding refers to all water that overflows a node, whether it ponds or not.
  --------------------------------------------------------------------------
                                                             Total   Maximum
                                 Maximum   Time of Max       Flood    Ponded
                        Hours       Rate    Occurrence      Volume     Depth
  Node                 Flooded       CFS   days hr:min    10^6 gal      Feet
  --------------------------------------------------------------------------
  J13                     1.00      9.49    116  17:16       0.096     0.000
  J14                     1.41      0.58    117  00:25       0.014     0.000
  J15                     1.29      1.89    116  17:22       0.037     0.000
  J18                    28.44      8.62    164  02:05       2.440     0.000
  J22                   486.36      2.25    100  15:47       0.934     0.000
  J24                    27.19      4.44    117  00:53       1.376     0.000
  J26                    85.16      2.65    116  23:33       2.311     0.000
  
  
  **********************
  Storage Volume Summary
  **********************
  
  ------------------------------------------------------------------------------------------------
                         Average    Avg   Evap  Exfil     Maximum    Max    Time of Max    Maximum
                          Volume   Pcnt   Pcnt   Pcnt      Volume   Pcnt     Occurrence    Outflow
  Storage Unit          1000 ft³   Full   Loss   Loss    1000 ft³   Full    days hr:min        CFS
  ------------------------------------------------------------------------------------------------
  11                       0.461    0.2    0.0    0.0      74.205   26.9     164  02:05      12.81
  9                        0.006    0.0    0.0    0.0       9.637   74.3     116  17:16      13.63
  5                        0.250    0.5    0.0    0.0      23.286   51.2     116  17:21      13.06
  4                      410.112   36.5    0.0    0.0     908.166   80.9     117  00:52       9.94
  10                     117.021   17.0    0.0    0.0     333.140   48.3     117  00:53       5.10
  3                       22.607    2.1    0.0    0.0     129.066   11.8     117  13:15       5.34
  1                      364.465   34.8    0.0    0.0     783.739   74.8     116  23:56       9.39
  2                        0.281    1.0    0.0    0.0       4.230   15.0     116  23:32       6.15
  6                       82.984   14.6    0.0    0.0     177.938   31.4     100  15:45       2.04
  7                        1.886    2.5    0.0    0.0      28.388   38.3     117  00:35       0.54
  8                        5.932    4.2    0.0    0.0      54.574   38.8     137  09:58       3.63
  
  
  ***********************
  Outfall Loading Summary
  ***********************
  
  -------------------------------------------------------------------------
                         Flow       Avg       Max       Total         Total
                         Freq      Flow      Flow      Volume           TSS
  Outfall Node           Pcnt       CFS       CFS    10^6 gal           lbs
  -------------------------------------------------------------------------
  O                     94.96      0.90      9.39      80.416         0.249
  -------------------------------------------------------------------------
  System                94.96      0.90      9.39      80.416         0.249
  
  
  ********************
  Link Flow Summary
  ********************
  
  -----------------------------------------------------------------------------
                                 Maximum  Time of Max   Maximum    Max/    Max/
                                  |Flow|   Occurrence   |Veloc|    Full    Full
  Link                 Type          CFS  days hr:min    ft/sec    Flow   Depth
  -----------------------------------------------------------------------------
  11C10                CONDUIT      5.94   181  18:26      9.36    1.07    1.00
  5C4                  CONDUIT     11.45   116  17:21     16.66    0.71    0.82
  4C3                  CONDUIT      5.98   116  22:55      8.34    1.07    1.00
  3C2                  CONDUIT      5.34   117  13:15      8.56    0.47    0.74
  2C1                  CONDUIT      4.29   118  01:35      5.58    0.77    1.00
  9C8                  CONDUIT      6.31   111  21:00     10.23    0.83    1.00
  8C6                  CONDUIT      3.62   137  10:01      5.48    0.62    1.00
  6C5                  CONDUIT      1.62   116  17:22      3.00    0.69    1.00
  7C6                  CONDUIT      2.02   100  15:46      4.81    0.07    1.00
  10C4                 CONDUIT      5.10   117  00:57      1.60    0.01    0.53
  O9                   ORIFICE     13.63   116  17:16                          
  O8                   ORIFICE      3.63   137  10:00                          
  O6                   ORIFICE      0.32   108  12:00                          
  O10                  ORIFICE      5.10   117  00:55                          
  O11                  ORIFICE     12.81   164  02:05                          
  O7                   ORIFICE      0.54   164  06:20                          
  O5                   ORIFICE     11.45   116  17:21                          
  O4                   ORIFICE      9.94   117  00:52                          
  O3                   ORIFICE      5.34   117  13:15                          
  O2                   ORIFICE      6.15   116  23:32                          
  O1                   ORIFICE      9.39   116  23:56                          
  
  
  ***************************
  Flow Classification Summary
  ***************************
  
  -------------------------------------------------------------------------------------
                      Adjusted    ---------- Fraction of Time in Flow Class ---------- 
                       /Actual         Up    Down  Sub   Sup   Up    Down  Norm  Inlet 
  Conduit               Length    Dry  Dry   Dry   Crit  Crit  Crit  Crit  Ltd   Ctrl  
  -------------------------------------------------------------------------------------
  11C10                   1.00   0.11  0.15  0.00  0.74  0.00  0.00  0.00  0.88  0.00
  5C4                     1.00   0.11  0.00  0.00  0.88  0.01  0.00  0.00  0.89  0.00
  4C3                     1.00   0.11  0.00  0.00  0.01  0.88  0.00  0.00  0.88  0.00
  3C2                     1.00   0.11  0.00  0.00  0.00  0.89  0.00  0.00  0.89  0.00
  2C1                     1.00   0.11  0.00  0.00  0.89  0.00  0.00  0.00  0.86  0.00
  9C8                     1.00   0.08  0.22  0.00  0.70  0.00  0.00  0.00  0.67  0.00
  8C6                     1.00   0.11  0.23  0.00  0.65  0.00  0.00  0.00  0.89  0.00
  6C5                     1.00   0.11  0.04  0.00  0.36  0.49  0.00  0.00  0.08  0.00
  7C6                     1.00   0.11  0.35  0.00  0.54  0.00  0.00  0.00  0.53  0.00
  10C4                    1.00   0.11  0.00  0.00  0.89  0.00  0.00  0.00  0.89  0.00
  
  
  *************************
  Conduit Surcharge Summary
  *************************
  
  ----------------------------------------------------------------------------
                                                           Hours        Hours 
                         --------- Hours Full --------   Above Full   Capacity
  Conduit                Both Ends  Upstream  Dnstream   Normal Flow   Limited
  ----------------------------------------------------------------------------
  11C10                      28.47     28.47   4241.70      0.37         0.01
  5C4                         0.01      0.01   4870.71      0.01         0.01
  4C3                        25.07     27.20     97.45      6.00         0.01
  3C2                         0.01      0.01    144.52      0.01         0.01
  2C1                        85.16     85.16   4870.65      0.01         0.01
  9C8                         1.00      1.00   2654.31      0.01         0.01
  8C6                         1.41      1.41   3301.41      0.01         0.01
  6C5                         1.29      1.29     18.86      0.01         0.01
  7C6                         0.01      0.01   3205.85      0.01         0.01
  10C4                        0.01      0.01     83.95      0.01         0.01
  
  
  ***************************
  Link Pollutant Load Summary
  ***************************
  
  ----------------------------------
                                 TSS
  Link                           lbs
  ----------------------------------
  11C10                     1359.770
  5C4                       1047.072
  4C3                          0.061
  3C2                          0.699
  2C1                        123.612
  9C8                        622.921
  8C6                         26.254
  6C5                          6.481
  7C6                         26.806
  10C4                         1.460
  O9                         637.644
  O8                          25.307
  O6                           0.138
  O10                          0.880
  O11                       1471.265
  O7                          26.262
  O5                        1046.545
  O4                           0.058
  O3                           0.694
  O2                         126.860
  O1                           0.249
  

  Analysis begun on:  Tue Oct 29 12:29:46 2024
  Analysis ended on:  Tue Oct 29 12:33:49 2024
  Total elapsed time: 00:04:03