
  EPA STORM WATER MANAGEMENT MODEL - VERSION 5.2 (Build 5.2.4)
  PYSWMM TOOLKIT API - VERSION v1.0 (2023-11-27)
  ------------------------------------------------------------

  Gamma 
  Anon 
  WARNING 07: routing time step reduced to the wet weather time step 
  
  ****************
  Analysis Options
  ****************
  Flow Units ............... CFS
  Process Models:
    Rainfall/Runoff ........ YES
    RDII ................... NO
    Snowmelt ............... NO
    Groundwater ............ NO
    Flow Routing ........... YES
    Ponding Allowed ........ YES
    Water Quality .......... YES
  Infiltration Method ...... GREEN_AMPT
  Flow Routing Method ...... DYNWAVE
  Surcharge Method ......... EXTRAN
  Starting Date ............ 03/01/2020 00:00:00
  Ending Date .............. 10/15/2020 00:00:00
  Antecedent Dry Days ...... 5.0
  Report Time Step ......... 00:05:00
  Wet Time Step ............ 00:01:00
  Dry Time Step ............ 00:01:00
  Routing Time Step ........ 60.00 sec
  Variable Time Step ....... YES
  Maximum Trials ........... 4
  Number of Threads ........ 1
  Head Tolerance ........... 0.005000 ft
  
  
  **************************        Volume         Depth
  Runoff Quantity Continuity     acre-feet        inches
  **************************     ---------       -------
  Total Precipitation ......       383.444        22.342
  Evaporation Loss .........         0.000         0.000
  Infiltration Loss ........       149.010         8.682
  Surface Runoff ...........       233.886        13.628
  Final Storage ............         0.632         0.037
  Continuity Error (%) .....        -0.022
  
  
  **************************           TSS
  Runoff Quality Continuity            lbs
  **************************    ----------
  Initial Buildup ..........      3394.520
  Surface Buildup ..........     15660.110
  Wet Deposition ...........         0.000
  Sweeping Removal .........         0.000
  Infiltration Loss ........         0.000
  BMP Removal ..............         0.000
  Surface Runoff ...........     15378.742
  Remaining Buildup ........      3675.888
  Continuity Error (%) .....         0.000
  
  
  **************************        Volume        Volume
  Flow Routing Continuity        acre-feet      10^6 gal
  **************************     ---------     ---------
  Dry Weather Inflow .......         0.000         0.000
  Wet Weather Inflow .......       233.597        76.121
  Groundwater Inflow .......         0.000         0.000
  RDII Inflow ..............         0.000         0.000
  External Inflow ..........         0.000         0.000
  External Outflow .........       106.712        34.774
  Flooding Loss ............       101.128        32.954
  Evaporation Loss .........         0.000         0.000
  Exfiltration Loss ........         0.000         0.000
  Initial Stored Volume ....         0.000         0.000
  Final Stored Volume ......        25.817         8.413
  Continuity Error (%) .....        -0.026
  
  
  **************************           TSS
  Quality Routing Continuity           lbs
  **************************    ----------
  Dry Weather Inflow .......         0.000
  Wet Weather Inflow .......     15359.568
  Groundwater Inflow .......         0.000
  RDII Inflow ..............         0.000
  External Inflow ..........         0.000
  External Outflow .........         0.002
  Flooding Loss ............       112.802
  Exfiltration Loss ........         0.000
  Mass Reacted .............     15241.703
  Initial Stored Mass ......         0.000
  Final Stored Mass ........         0.002
  Continuity Error (%) .....         0.033
  
  
  ***************************
  Time-Step Critical Elements
  ***************************
  Link 3C2 (63.82%)
  Link 5C4 (17.17%)
  Link 7C6 (2.30%)
  
  
  ********************************
  Highest Flow Instability Indexes
  ********************************
  Link O3 (114)
  Link 3C2 (110)
  Link O2 (99)
  Link 5C4 (18)
  Link O5 (18)
  
  
  *********************************
  Most Frequent Nonconverging Nodes
  *********************************
  Node O (0.69%)
  Node J25 (0.45%)
  Node J26 (0.14%)
  Node J13 (0.05%)
  Node J23 (0.04%)
  
  
  *************************
  Routing Time Step Summary
  *************************
  Minimum Time Step           :     2.05 sec
  Average Time Step           :    32.25 sec
  Maximum Time Step           :    60.00 sec
  % of Time in Steady State   :     0.00
  Average Iterations per Step :     2.91
  % of Steps Not Converging   :     0.69
  Time Step Frequencies       :
     60.000 - 23.031 sec      :    71.56 %
     23.031 -  8.841 sec      :    27.14 %
      8.841 -  3.393 sec      :     1.30 %
      3.393 -  1.303 sec      :     0.00 %
      1.303 -  0.500 sec      :     0.00 %
  
  
  ***************************
  Subcatchment Runoff Summary
  ***************************
  
  ------------------------------------------------------------------------------------------------------------------------------
                            Total      Total      Total      Total     Imperv       Perv      Total       Total     Peak  Runoff
                           Precip      Runon       Evap      Infil     Runoff     Runoff     Runoff      Runoff   Runoff   Coeff
  Subcatchment                 in         in         in         in         in         in         in    10^6 gal      CFS
  ------------------------------------------------------------------------------------------------------------------------------
  102                       21.94       0.00       0.00       9.65      12.26       0.00      12.26        0.95     4.55   0.559
  103                       21.94       0.00       0.00      12.92       8.98       0.02       9.00        1.37     6.59   0.410
  115                       25.14       0.00       0.00      15.57       9.53       0.02       9.55        2.67    12.06   0.380
  120                       25.14       0.00       0.00      12.07      13.05       0.00      13.05        2.37    11.08   0.519
  1472                      21.94       0.00       0.00       7.89      14.01       0.01      14.02        1.22     5.88   0.639
  1497                      25.14       0.00       0.00       3.52      21.58       0.00      21.58        8.77    40.25   0.858
  1499                      20.90       0.00       0.00       1.04      19.80       0.00      19.80       13.57    78.33   0.948
  1503                      20.90       0.00       0.00       5.43      15.43       0.00      15.43        0.56     3.26   0.738
  1506                      20.94       0.00       0.00      10.26      10.65       0.00      10.65        2.93    10.83   0.509
  1570                      21.94       0.00       0.00      14.89       7.01       0.02       7.03        1.50     7.20   0.320
  1648                      25.14       0.00       0.00      13.83      11.29       0.00      11.29        0.83     3.88   0.449
  1736                      25.14       0.00       0.00      11.31      13.80       0.00      13.80        5.62    26.25   0.549
  1780                      25.14       0.00       0.00      15.08      10.04       0.00      10.04        0.64     2.97   0.399
  54                        20.90       0.00       0.00       2.72      18.13       0.00      18.13       17.91   103.05   0.868
  57                        20.90       0.00       0.00      14.21       6.67       0.00       6.67        1.84    10.52   0.319
  62                        20.90       0.00       0.00      13.38       7.51       0.00       7.51        2.15    12.59   0.359
  93                        25.14       0.00       0.00      11.56      13.55       0.00      13.55        3.02    14.14   0.539
  94                        20.94       0.00       0.00      13.55       7.31       0.06       7.37        2.56    14.14   0.352
  97                        21.94       0.00       0.00      11.18      10.73       0.01      10.74        5.73    27.56   0.489
  
  
  ****************************
  Subcatchment Washoff Summary
  ****************************
  
  ----------------------------------
                                 TSS
  Subcatchment                   lbs
  ----------------------------------
  102                        190.987
  103                        276.997
  115                        535.463
  120                        478.900
  1472                       247.001
  1497                      1772.079
  1499                      2738.924
  1503                       113.257
  1506                       591.482
  1570                       302.909
  1648                       167.845
  1736                      1135.368
  1780                       128.250
  54                        3613.633
  57                         366.862
  62                         434.895
  93                         611.520
  94                         514.826
  97                        1157.545
  ----------------------------------
  System                   15378.742
  
  
  ******************
  Node Depth Summary
  ******************
  
  ---------------------------------------------------------------------------------
                                 Average  Maximum  Maximum  Time of Max    Reported
                                   Depth    Depth      HGL   Occurrence   Max Depth
  Node                 Type         Feet     Feet     Feet  days hr:min        Feet
  ---------------------------------------------------------------------------------
  J13                  JUNCTION     0.01     1.00   889.17    27  05:20        1.00
  J14                  JUNCTION     0.03     1.00   882.00   180  06:28        1.00
  J15                  JUNCTION     0.08     1.00   872.00    27  05:37        1.00
  J18                  JUNCTION     0.04     1.00   875.22    27  05:10        1.00
  J19                  JUNCTION     0.05     0.64   858.92   166  12:49        0.64
  J22                  JUNCTION     0.04     0.74   879.74    40  12:08        0.74
  J23                  JUNCTION     0.04     0.62   868.62   140  12:47        0.62
  J24                  JUNCTION     0.16     1.00   847.00   180  08:40        1.00
  J25                  JUNCTION     0.12     0.45   832.95   181  06:33        0.45
  J26                  JUNCTION     0.20     1.00   822.50   102  02:36        1.00
  O                    OUTFALL      0.00     0.00   810.00     0  00:00        0.00
  11                   STORAGE      0.09     5.71   879.93   166  13:03        5.70
  9                    STORAGE      0.02     3.78   891.95    27  05:31        3.61
  5                    STORAGE      0.10     5.42   873.42   140  12:47        5.29
  4                    STORAGE      2.84    10.00   856.00    78  17:38       10.00
  10                   STORAGE      1.58     8.25   866.53    28  03:06        8.25
  3                    STORAGE      0.23     1.30   833.80   181  06:33        1.30
  1                    STORAGE      6.34    10.00   820.00   101  17:23       10.00
  2                    STORAGE      0.32     1.85   823.35   181  06:48        1.85
  6                    STORAGE      2.10     8.74   879.74    40  12:08        8.74
  7                    STORAGE      7.35    10.00   889.00    88  08:04       10.00
  8                    STORAGE      0.63     6.23   887.23    27  09:16        6.23
  
  
  *******************
  Node Inflow Summary
  *******************
  
  -------------------------------------------------------------------------------------------------
                                  Maximum  Maximum                  Lateral       Total        Flow
                                  Lateral    Total  Time of Max      Inflow      Inflow     Balance
                                   Inflow   Inflow   Occurrence      Volume      Volume       Error
  Node                 Type           CFS      CFS  days hr:min    10^6 gal    10^6 gal     Percent
  -------------------------------------------------------------------------------------------------
  J13                  JUNCTION      0.00     8.70    27  05:31           0        2.55      -0.169
  J14                  JUNCTION      0.00     7.10   180  06:38           0        5.45      -0.071
  J15                  JUNCTION      0.00     6.99   191  06:49           0        7.28       0.023
  J18                  JUNCTION      0.00    11.32   166  13:04           0        12.1      -0.069
  J19                  JUNCTION      0.00     8.34   166  13:20           0        22.5      -0.052
  J22                  JUNCTION      0.00     0.30    30  01:20           0       0.481      -0.041
  J23                  JUNCTION      0.00    11.42   140  12:47           0        13.8       0.062
  J24                  JUNCTION      0.00     6.70   191  09:56           0        46.3      -0.000
  J25                  JUNCTION      0.00     4.81   181  06:33           0          48       0.395
  J26                  JUNCTION      0.00     4.81   181  06:48           0        48.5       0.001
  O                    OUTFALL       0.00    14.07   170  02:01           0        34.8       0.000
  11                   STORAGE      56.24    56.24   140  12:45        12.1        12.1       0.133
  9                    STORAGE      14.14    14.14    27  05:30        2.55        2.55      -0.018
  5                    STORAGE      33.43    33.43   140  12:45        6.93        13.8       0.013
  4                    STORAGE      90.91   108.63   140  12:45        15.7          52       0.014
  10                   STORAGE      54.39    59.74   140  12:45        11.8        22.5      -0.121
  3                    STORAGE      10.52    12.08   140  12:45        1.83        47.9      -0.216
  1                    STORAGE     103.05   106.93   140  12:45        17.9        64.3       0.031
  2                    STORAGE       3.26     5.40   181  00:15       0.561        48.4      -0.218
  6                    STORAGE       6.59    10.28   180  06:38        1.37        7.26       0.006
  7                    STORAGE      11.75    11.75   140  12:45        2.44        2.44       0.119
  8                    STORAGE      10.83    17.91   140  12:28        2.93        5.45       0.017
  
  
  **********************
  Node Surcharge Summary
  **********************
  
  Surcharging occurs when water rises above the top of the highest conduit.
  ---------------------------------------------------------------------
                                               Max. Height   Min. Depth
                                   Hours       Above Crown    Below Rim
  Node                 Type      Surcharged           Feet         Feet
  ---------------------------------------------------------------------
  J13                  JUNCTION        0.75          0.000        0.000
  J14                  JUNCTION        1.35          0.000        0.000
  J15                  JUNCTION        5.83          0.000        0.000
  J18                  JUNCTION       20.68          0.000        0.000
  J24                  JUNCTION       12.71          0.000        0.000
  J26                  JUNCTION      111.41          0.000        0.000
  
  
  *********************
  Node Flooding Summary
  *********************
  
  Flooding refers to all water that overflows a node, whether it ponds or not.
  --------------------------------------------------------------------------
                                                             Total   Maximum
                                 Maximum   Time of Max       Flood    Ponded
                        Hours       Rate    Occurrence      Volume     Depth
  Node                 Flooded       CFS   days hr:min    10^6 gal      Feet
  --------------------------------------------------------------------------
  J13                     0.75      4.33     27  05:31       0.040     0.000
  J14                     1.35      1.45    180  06:41       0.030     0.000
  J15                     5.83      6.99    191  06:49       0.419     0.000
  J18                    20.68      6.15    166  13:04       1.401     0.000
  J24                    12.70      1.19    191  09:39       0.259     0.000
  J26                   111.36      2.00    191  17:18       2.038     0.000
  4                     555.50     57.47    101  16:15       5.680     0.000
  1                    1626.31     53.74    131  20:30      21.683     0.000
  7                     338.95     11.75    140  12:45       1.406     0.000
  
  
  **********************
  Storage Volume Summary
  **********************
  
  ------------------------------------------------------------------------------------------------
                         Average    Avg   Evap  Exfil     Maximum    Max    Time of Max    Maximum
                          Volume   Pcnt   Pcnt   Pcnt      Volume   Pcnt     Occurrence    Outflow
  Storage Unit          1000 ft³   Full   Loss   Loss    1000 ft³   Full    days hr:min        CFS
  ------------------------------------------------------------------------------------------------
  11                       0.377    0.1    0.0    0.0      52.379   19.0     166  13:03      11.32
  9                        0.004    0.0    0.0    0.0       3.440   26.5      27  05:31       8.70
  5                        0.227    0.5    0.0    0.0      23.128   50.9     140  12:47      13.01
  4                      284.365   25.3    0.0    0.0    1122.846  100.0      78  17:38       6.70
  10                      40.331    5.8    0.0    0.0     287.746   41.7      28  03:06       8.34
  3                       18.816    1.7    0.0    0.0     108.846   10.0     181  06:33       4.81
  1                      619.963   59.1    0.0    0.0    1048.170  100.0     101  17:23      14.07
  2                        0.255    0.9    0.0    0.0       2.815   10.0     181  06:48       4.81
  6                       28.877    5.1    0.0    0.0     151.976   26.8      40  12:08       6.31
  7                       52.269   70.5    0.0    0.0      74.093  100.0      88  08:04       0.30
  8                        1.915    1.4    0.0    0.0      52.074   37.0      27  09:16       7.10
  
  
  ***********************
  Outfall Loading Summary
  ***********************
  
  -------------------------------------------------------------------------
                         Flow       Avg       Max       Total         Total
                         Freq      Flow      Flow      Volume           TSS
  Outfall Node           Pcnt       CFS       CFS    10^6 gal           lbs
  -------------------------------------------------------------------------
  O                     37.46      0.88     14.07      34.771         0.002
  -------------------------------------------------------------------------
  System                37.46      0.88     14.07      34.771         0.002
  
  
  ********************
  Link Flow Summary
  ********************
  
  -----------------------------------------------------------------------------
                                 Maximum  Time of Max   Maximum    Max/    Max/
                                  |Flow|   Occurrence   |Veloc|    Full    Full
  Link                 Type          CFS  days hr:min    ft/sec    Flow   Depth
  -----------------------------------------------------------------------------
  11C10                CONDUIT      5.96   101  16:10    >50.00    1.08    1.00
  5C4                  CONDUIT     11.42   140  12:47     25.64    0.71    0.81
  4C3                  CONDUIT      5.99   180  15:24     11.54    1.07    1.00
  3C2                  CONDUIT      4.81   181  06:34      7.87    0.42    0.73
  2C1                  CONDUIT      4.72   181  00:26      6.34    0.85    1.00
  9C8                  CONDUIT      7.10   140  12:28     20.78    0.94    1.00
  8C6                  CONDUIT      6.31   180  06:27     17.12    1.08    1.00
  6C5                  CONDUIT      2.40   180  09:40      3.58    1.03    1.00
  7C6                  CONDUIT      0.31    30  01:21      0.36    0.01    0.76
  10C4                 CONDUIT      8.38   166  13:19     10.48    0.01    0.52
  O9                   ORIFICE      8.70    27  05:31                          
  O8                   ORIFICE      7.10   180  06:38                          
  O6                   ORIFICE      6.31   191  06:50                          
  O10                  ORIFICE      8.34   166  13:20                          
  O11                  ORIFICE     11.32   166  13:04                          
  O7                   ORIFICE      0.30    30  01:20                          
  O5                   ORIFICE     11.42   140  12:47                          
  O4                   ORIFICE      6.70   191  09:56                          
  O3                   ORIFICE      4.81   181  06:33                          
  O2                   ORIFICE      4.81   181  06:48                          
  O1                   ORIFICE     14.07   170  02:01                          
  
  
  ***************************
  Flow Classification Summary
  ***************************
  
  -------------------------------------------------------------------------------------
                      Adjusted    ---------- Fraction of Time in Flow Class ---------- 
                       /Actual         Up    Down  Sub   Sup   Up    Down  Norm  Inlet 
  Conduit               Length    Dry  Dry   Dry   Crit  Crit  Crit  Crit  Ltd   Ctrl  
  -------------------------------------------------------------------------------------
  11C10                   1.00   0.08  0.02  0.00  0.89  0.02  0.00  0.00  0.91  0.00
  5C4                     1.00   0.08  0.01  0.00  0.90  0.02  0.00  0.00  0.92  0.00
  4C3                     1.00   0.08  0.21  0.00  0.05  0.66  0.00  0.00  0.89  0.00
  3C2                     1.00   0.08  0.00  0.00  0.04  0.88  0.00  0.00  0.89  0.00
  2C1                     1.00   0.08  0.00  0.00  0.91  0.02  0.00  0.00  0.89  0.00
  9C8                     1.00   0.15  0.17  0.00  0.67  0.01  0.00  0.00  0.84  0.00
  8C6                     1.00   0.08  0.24  0.00  0.67  0.01  0.00  0.00  0.92  0.00
  6C5                     1.00   0.08  0.04  0.00  0.65  0.23  0.00  0.00  0.07  0.00
  7C6                     1.00   0.08  0.80  0.00  0.12  0.00  0.00  0.00  0.77  0.00
  10C4                    1.00   0.08  0.22  0.00  0.69  0.01  0.00  0.00  0.92  0.00
  
  
  *************************
  Conduit Surcharge Summary
  *************************
  
  ----------------------------------------------------------------------------
                                                           Hours        Hours 
                         --------- Hours Full --------   Above Full   Capacity
  Conduit                Both Ends  Upstream  Dnstream   Normal Flow   Limited
  ----------------------------------------------------------------------------
  11C10                      20.68     20.68   1756.12      0.80         0.01
  5C4                         0.01      0.01   2704.06      0.01         0.01
  4C3                         3.63     12.70     34.20      7.10         0.01
  3C2                         0.01      0.01    151.60      0.01         0.01
  2C1                       109.52    109.52   4705.29      0.01         0.01
  9C8                         0.75      0.75   1128.94      0.01         0.01
  8C6                         1.33      1.35   1502.83      0.28         0.01
  6C5                         5.83      5.83     19.44      0.59         0.01
  7C6                         0.01      0.01   4750.66      0.01         0.01
  10C4                        0.01      0.01    689.01      0.01         0.01
  
  
  ***************************
  Link Pollutant Load Summary
  ***************************
  
  ----------------------------------
                                 TSS
  Link                           lbs
  ----------------------------------
  11C10                     1176.330
  5C4                        929.721
  4C3                          1.495
  3C2                          0.260
  2C1                        104.349
  9C8                        502.312
  8C6                        459.343
  6C5                         25.400
  7C6                          0.951
  10C4                       223.153
  O9                         509.181
  O8                         458.790
  O6                          28.301
  O10                        213.316
  O11                       1257.438
  O7                           0.958
  O5                         928.205
  O4                           1.516
  O3                           0.251
  O2                         104.028
  O1                           0.002
  

  Analysis begun on:  Thu Mar 14 17:11:05 2024
  Analysis ended on:  Thu Mar 14 17:25:26 2024
  Total elapsed time: 00:14:21