
  EPA STORM WATER MANAGEMENT MODEL - VERSION 5.2 (Build 5.2.4)
  ------------------------------------------------------------

  Gamma 
  Anon 
  
  ****************
  Analysis Options
  ****************
  Flow Units ............... CFS
  Process Models:
    Rainfall/Runoff ........ YES
    RDII ................... NO
    Snowmelt ............... NO
    Groundwater ............ NO
    Flow Routing ........... YES
    Ponding Allowed ........ YES
    Water Quality .......... YES
  Infiltration Method ...... GREEN_AMPT
  Flow Routing Method ...... DYNWAVE
  Surcharge Method ......... EXTRAN
  Starting Date ............ 02/25/2020 00:00:00
  Ending Date .............. 10/15/2020 00:00:00
  Antecedent Dry Days ...... 5.0
  Report Time Step ......... 00:05:00
  Wet Time Step ............ 00:01:00
  Dry Time Step ............ 00:01:00
  Routing Time Step ........ 60.00 sec
  Variable Time Step ....... YES
  Maximum Trials ........... 8
  Number of Threads ........ 1
  Head Tolerance ........... 0.005000 ft
  
  
  **************************        Volume         Depth
  Runoff Quantity Continuity     acre-feet        inches
  **************************     ---------       -------
  Total Precipitation ......       464.905        27.088
  Evaporation Loss .........         0.000         0.000
  Infiltration Loss ........       177.430        10.338
  Surface Runoff ...........       286.942        16.719
  Final Storage ............         0.632         0.037
  Continuity Error (%) .....        -0.021
  
  
  **************************           TSS
  Runoff Quality Continuity            lbs
  **************************    ----------
  Initial Buildup ..........      3394.520
  Surface Buildup ..........     18542.224
  Wet Deposition ...........         0.000
  Sweeping Removal .........         0.000
  Infiltration Loss ........         0.000
  BMP Removal ..............         0.000
  Surface Runoff ...........     18260.536
  Remaining Buildup ........      3676.208
  Continuity Error (%) .....         0.000
  
  
  **************************        Volume        Volume
  Flow Routing Continuity        acre-feet      10^6 gal
  **************************     ---------     ---------
  Dry Weather Inflow .......         0.000         0.000
  Wet Weather Inflow .......       286.648        93.409
  Groundwater Inflow .......         0.000         0.000
  RDII Inflow ..............         0.000         0.000
  External Inflow ..........         0.000         0.000
  External Outflow .........       249.713        81.373
  Flooding Loss ............        37.016        12.062
  Evaporation Loss .........         0.000         0.000
  Exfiltration Loss ........         0.000         0.000
  Initial Stored Volume ....         0.000         0.000
  Final Stored Volume ......         0.027         0.009
  Continuity Error (%) .....        -0.038
  
  
  **************************           TSS
  Quality Routing Continuity           lbs
  **************************    ----------
  Dry Weather Inflow .......         0.000
  Wet Weather Inflow .......     18241.527
  Groundwater Inflow .......         0.000
  RDII Inflow ..............         0.000
  External Inflow ..........         0.000
  External Outflow .........        85.630
  Flooding Loss ............       179.687
  Exfiltration Loss ........         0.000
  Mass Reacted .............     17993.404
  Initial Stored Mass ......         0.000
  Final Stored Mass ........         0.010
  Continuity Error (%) .....        -0.094
  
  
  ***************************
  Time-Step Critical Elements
  ***************************
  Link 3C2 (73.15%)
  Link 5C4 (9.12%)
  
  
  ********************************
  Highest Flow Instability Indexes
  ********************************
  Link O3 (111)
  Link 3C2 (107)
  Link O2 (100)
  Link O8 (21)
  Link O5 (11)
  
  
  *********************************
  Most Frequent Nonconverging Nodes
  *********************************
  Node O (0.01%)
  Node J25 (0.00%)
  Node 9 (0.00%)
  Node J13 (0.00%)
  Node J14 (0.00%)
  
  
  *************************
  Routing Time Step Summary
  *************************
  Minimum Time Step           :     3.39 sec
  Average Time Step           :    33.40 sec
  Maximum Time Step           :    60.00 sec
  % of Time in Steady State   :     0.00
  Average Iterations per Step :     2.83
  % of Steps Not Converging   :     0.01
  Time Step Frequencies       :
     60.000 - 23.031 sec      :    66.13 %
     23.031 -  8.841 sec      :    31.43 %
      8.841 -  3.393 sec      :     2.44 %
      3.393 -  1.303 sec      :     0.00 %
      1.303 -  0.500 sec      :     0.00 %
  
  
  ***************************
  Subcatchment Runoff Summary
  ***************************
  
  ------------------------------------------------------------------------------------------------------------------------------
                            Total      Total      Total      Total     Imperv       Perv      Total       Total     Peak  Runoff
                           Precip      Runon       Evap      Infil     Runoff     Runoff     Runoff      Runoff   Runoff   Coeff
  Subcatchment                 in         in         in         in         in         in         in    10^6 gal      CFS
  ------------------------------------------------------------------------------------------------------------------------------
  102                       24.76       0.00       0.00      10.89      13.84       0.01      13.84        1.07     3.84   0.559
  103                       24.76       0.00       0.00      14.55      10.13       0.06      10.19        1.55     6.51   0.412
  115                       30.18       0.00       0.00      18.46      11.45       0.25      11.70        3.28    13.02   0.388
  120                       30.18       0.00       0.00      14.31      15.67       0.17      15.84        2.88    12.24   0.525
  1472                      24.76       0.00       0.00       8.86      15.81       0.06      15.87        1.38     5.66   0.641
  1497                      30.18       0.00       0.00       4.17      25.91       0.06      25.97       10.56    38.05   0.860
  1499                      26.24       0.00       0.00       1.27      24.88       0.05      24.92       17.08    63.83   0.950
  1503                      26.24       0.00       0.00       6.65      19.38       0.17      19.55        0.71     3.07   0.745
  1506                      26.04       0.00       0.00      12.74      13.26       0.02      13.28        3.66    16.87   0.510
  1570                      24.76       0.00       0.00      16.75       7.91       0.08       7.99        1.71     7.96   0.323
  1648                      30.18       0.00       0.00      16.50      13.56       0.10      13.66        1.00     3.97   0.452
  1736                      30.18       0.00       0.00      13.50      16.57       0.08      16.66        6.78    25.90   0.552
  1780                      30.18       0.00       0.00      18.01      12.05       0.10      12.16        0.77     3.18   0.403
  54                        26.24       0.00       0.00       3.36      22.78       0.05      22.83       22.54    88.51   0.870
  57                        26.24       0.00       0.00      17.76       8.38       0.09       8.47        2.33     9.90   0.323
  62                        26.24       0.00       0.00      16.38       9.43       0.41       9.84        2.82    18.51   0.375
  93                        30.18       0.00       0.00      13.75      16.27       0.14      16.41        3.66    15.22   0.544
  94                        26.04       0.00       0.00      16.74       9.10       0.18       9.28        3.22    24.84   0.356
  97                        24.76       0.00       0.00      12.55      12.11       0.07      12.18        6.50    29.41   0.492
  
  
  ****************************
  Subcatchment Washoff Summary
  ****************************
  
  ----------------------------------
                                 TSS
  Subcatchment                   lbs
  ----------------------------------
  102                        215.761
  103                        313.800
  115                        656.910
  120                        581.745
  1472                       279.770
  1497                      2067.121
  1499                      3173.108
  1503                       140.041
  1506                       738.244
  1570                       344.410
  1648                       203.096
  1736                      1371.047
  1780                       155.405
  54                        4278.429
  57                         466.871
  62                         570.783
  93                         740.864
  94                         649.463
  97                        1313.670
  ----------------------------------
  System                   18260.536
  
  
  ******************
  Node Depth Summary
  ******************
  
  ---------------------------------------------------------------------------------
                                 Average  Maximum  Maximum  Time of Max    Reported
                                   Depth    Depth      HGL   Occurrence   Max Depth
  Node                 Type         Feet     Feet     Feet  days hr:min        Feet
  ---------------------------------------------------------------------------------
  J13                  JUNCTION     0.02     1.00   889.17   115  17:32        1.00
  J14                  JUNCTION     0.04     1.00   882.00   110  21:29        1.00
  J15                  JUNCTION     0.10     1.00   872.00    24  00:34        1.00
  J18                  JUNCTION     0.06     1.00   875.22    99  15:36        1.00
  J19                  JUNCTION     0.06     0.55   858.83   163  02:40        0.55
  J22                  JUNCTION     0.02     0.46   879.46   115  17:48        0.46
  J23                  JUNCTION     0.05     0.65   868.65   115  17:50        0.65
  J24                  JUNCTION     0.22     1.00   847.00    24  03:43        1.00
  J25                  JUNCTION     0.14     0.50   833.00   205  02:20        0.50
  J26                  JUNCTION     0.23     1.00   822.50   115  23:30        1.00
  O                    OUTFALL      0.00     0.00   810.00     0  00:00        0.00
  11                   STORAGE      0.14     7.03   881.25   163  02:35        7.03
  9                    STORAGE      0.04     7.77   895.94   115  17:46        7.42
  5                    STORAGE      0.12     5.97   873.97   115  17:50        5.97
  4                    STORAGE      0.49     5.25   851.25   116  02:14        5.25
  10                   STORAGE      0.18     4.68   862.96   163  02:39        4.68
  3                    STORAGE      0.32     1.67   834.17   205  02:20        1.67
  1                    STORAGE      0.29     3.54   813.54   116  00:28        3.54
  2                    STORAGE      0.41     2.45   823.95   116  00:02        2.45
  6                    STORAGE      0.16     3.91   874.91   115  18:11        3.91
  7                    STORAGE      0.03     1.88   880.88   115  17:48        1.86
  8                    STORAGE      0.07     4.20   885.20   115  17:48        4.19
  
  
  *******************
  Node Inflow Summary
  *******************
  
  -------------------------------------------------------------------------------------------------
                                  Maximum  Maximum                  Lateral       Total        Flow
                                  Lateral    Total  Time of Max      Inflow      Inflow     Balance
                                   Inflow   Inflow   Occurrence      Volume      Volume       Error
  Node                 Type           CFS      CFS  days hr:min    10^6 gal    10^6 gal     Percent
  -------------------------------------------------------------------------------------------------
  J13                  JUNCTION      0.00    13.57   115  17:46           0        3.22      -0.088
  J14                  JUNCTION      0.00     9.33   115  17:48           0        6.82      -0.114
  J15                  JUNCTION      0.00    10.52   115  18:00           0        10.9       0.025
  J18                  JUNCTION      0.00    12.81   163  02:35           0        14.7      -0.063
  J19                  JUNCTION      0.00    10.61   163  02:39           0        27.1      -0.095
  J22                  JUNCTION      0.00     6.23   115  17:48           0        2.77      -0.031
  J23                  JUNCTION      0.00    12.04   115  17:50           0        15.8       0.027
  J24                  JUNCTION      0.00    10.75   116  02:14           0        62.7      -0.004
  J25                  JUNCTION      0.00     5.66   205  02:20           0        58.5       0.313
  J26                  JUNCTION      0.00     6.29   116  00:02           0        59.1       0.009
  O                    OUTFALL       0.00     9.81   116  00:28           0        81.4       0.000
  11                   STORAGE      58.17    58.17   163  02:00        14.7        14.7       0.083
  9                    STORAGE      24.84    24.84   115  17:45        3.21        3.22      -0.027
  5                    STORAGE      35.07    35.07   115  17:45        7.87        15.9       0.067
  4                    STORAGE      82.34    86.89   115  18:00        19.9        62.8       0.038
  10                   STORAGE      53.26    58.36   163  02:00        14.2          27      -0.047
  3                    STORAGE       9.90    15.41   115  23:30        2.33        58.4      -0.180
  1                    STORAGE      88.51    94.10   115  23:30        22.5        81.4       0.003
  2                    STORAGE       3.07     7.83   115  23:30       0.711          59      -0.178
  6                    STORAGE       6.51    17.67   115  17:45        1.55        10.9      -0.077
  7                    STORAGE      11.75    11.75   115  17:45        2.77        2.77       0.009
  8                    STORAGE      16.87    22.57   115  17:45        3.65        6.82       0.029
  
  
  **********************
  Node Surcharge Summary
  **********************
  
  Surcharging occurs when water rises above the top of the highest conduit.
  ---------------------------------------------------------------------
                                               Max. Height   Min. Depth
                                   Hours       Above Crown    Below Rim
  Node                 Type      Surcharged           Feet         Feet
  ---------------------------------------------------------------------
  J13                  JUNCTION        0.52          0.000        0.000
  J14                  JUNCTION        5.59          0.000        0.000
  J15                  JUNCTION       29.78          0.000        0.000
  J18                  JUNCTION       23.87          0.000        0.000
  J24                  JUNCTION      104.22          0.000        0.000
  J26                  JUNCTION       34.58          0.000        0.000
  
  
  *********************
  Node Flooding Summary
  *********************
  
  Flooding refers to all water that overflows a node, whether it ponds or not.
  --------------------------------------------------------------------------
                                                             Total   Maximum
                                 Maximum   Time of Max       Flood    Ponded
                        Hours       Rate    Occurrence      Volume     Depth
  Node                 Flooded       CFS   days hr:min    10^6 gal      Feet
  --------------------------------------------------------------------------
  J13                     0.52      7.92    115  17:46       0.064     0.000
  J14                     5.58      4.27    115  17:50       0.274     0.000
  J15                    29.77     10.52    115  18:00       2.919     0.000
  J18                    23.86      7.94    163  02:35       1.844     0.000
  J24                   104.19      5.28    116  02:15       6.714     0.000
  J26                    34.55      1.32    116  00:04       0.246     0.000
  
  
  **********************
  Storage Volume Summary
  **********************
  
  ------------------------------------------------------------------------------------------------
                         Average    Avg   Evap  Exfil     Maximum    Max    Time of Max    Maximum
                          Volume   Pcnt   Pcnt   Pcnt      Volume   Pcnt     Occurrence    Outflow
  Storage Unit          1000 ft³   Full   Loss   Loss    1000 ft³   Full    days hr:min        CFS
  ------------------------------------------------------------------------------------------------
  11                       0.639    0.2    0.0    0.0      74.221   26.9     163  02:35      12.81
  9                        0.007    0.1    0.0    0.0       9.544   73.6     115  17:46      13.57
  5                        0.314    0.7    0.0    0.0      25.827   56.8     115  17:50      13.92
  4                       43.048    3.8    0.0    0.0     513.001   45.7     116  02:14      10.75
  10                       3.282    0.5    0.0    0.0     119.182   17.3     163  02:39      10.61
  3                       25.892    2.4    0.0    0.0     142.087   13.0     205  02:20       5.66
  1                       20.982    2.0    0.0    0.0     286.988   27.4     116  00:28       9.81
  2                        0.405    1.4    0.0    0.0       4.409   15.6     116  00:02       6.29
  6                        1.067    0.2    0.0    0.0      28.031    4.9     115  18:11       8.89
  7                        0.048    0.1    0.0    0.0       5.570    7.5     115  17:48       6.23
  8                        0.081    0.1    0.0    0.0      21.000   14.9     115  17:48       9.33
  
  
  ***********************
  Outfall Loading Summary
  ***********************
  
  -------------------------------------------------------------------------
                         Flow       Avg       Max       Total         Total
                         Freq      Flow      Flow      Volume           TSS
  Outfall Node           Pcnt       CFS       CFS    10^6 gal           lbs
  -------------------------------------------------------------------------
  O                     93.53      1.41      9.81      81.367        85.695
  -------------------------------------------------------------------------
  System                93.53      1.41      9.81      81.367        85.695
  
  
  ********************
  Link Flow Summary
  ********************
  
  -----------------------------------------------------------------------------
                                 Maximum  Time of Max   Maximum    Max/    Max/
                                  |Flow|   Occurrence   |Veloc|    Full    Full
  Link                 Type          CFS  days hr:min    ft/sec    Flow   Depth
  -----------------------------------------------------------------------------
  11C10                CONDUIT      5.96    99  15:36      9.50    1.08    1.00
  5C4                  CONDUIT     12.04   115  17:51     28.61    0.75    0.82
  4C3                  CONDUIT      5.96   111  09:55     10.86    1.07    1.00
  3C2                  CONDUIT      5.66   205  02:20      8.96    0.50    0.75
  2C1                  CONDUIT      5.84   205  16:00      8.71    1.05    1.00
  9C8                  CONDUIT      6.81   115  17:32      8.80    0.90    1.00
  8C6                  CONDUIT      6.27   160  12:28     21.18    1.07    1.00
  6C5                  CONDUIT      2.57   160  12:50      4.24    1.10    1.00
  7C6                  CONDUIT      6.23   115  17:48     11.39    0.23    0.66
  10C4                 CONDUIT     10.61   163  02:40      9.52    0.01    0.44
  O9                   ORIFICE     13.57   115  17:46                          
  O8                   ORIFICE      9.33   115  17:48                          
  O6                   ORIFICE      8.89   115  18:11                          
  O10                  ORIFICE     10.61   163  02:39                          
  O11                  ORIFICE     12.81   163  02:35                          
  O7                   ORIFICE      6.23   115  17:48                          
  O5                   ORIFICE     12.04   115  17:50                          
  O4                   ORIFICE     10.75   116  02:14                          
  O3                   ORIFICE      5.66   205  02:20                          
  O2                   ORIFICE      6.29   116  00:02                          
  O1                   ORIFICE      9.81   116  00:28                          
  
  
  ***************************
  Flow Classification Summary
  ***************************
  
  -------------------------------------------------------------------------------------
                      Adjusted    ---------- Fraction of Time in Flow Class ---------- 
                       /Actual         Up    Down  Sub   Sup   Up    Down  Norm  Inlet 
  Conduit               Length    Dry  Dry   Dry   Crit  Crit  Crit  Crit  Ltd   Ctrl  
  -------------------------------------------------------------------------------------
  11C10                   1.00   0.01  0.00  0.00  0.94  0.04  0.00  0.00  0.96  0.00
  5C4                     1.00   0.01  0.00  0.00  0.90  0.08  0.00  0.00  0.98  0.00
  4C3                     1.00   0.01  0.00  0.00  0.15  0.84  0.00  0.00  0.81  0.00
  3C2                     1.00   0.01  0.00  0.00  0.20  0.78  0.00  0.00  0.97  0.00
  2C1                     1.00   0.01  0.00  0.00  0.02  0.96  0.00  0.00  0.07  0.00
  9C8                     1.00   0.13  0.15  0.00  0.70  0.02  0.00  0.00  0.87  0.00
  8C6                     1.00   0.01  0.23  0.00  0.73  0.02  0.00  0.00  0.97  0.00
  6C5                     1.00   0.01  0.00  0.00  0.96  0.03  0.00  0.00  0.03  0.00
  7C6                     1.00   0.01  0.65  0.00  0.33  0.01  0.00  0.00  0.99  0.00
  10C4                    1.00   0.01  0.30  0.00  0.67  0.02  0.00  0.00  0.98  0.00
  
  
  *************************
  Conduit Surcharge Summary
  *************************
  
  ----------------------------------------------------------------------------
                                                           Hours        Hours 
                         --------- Hours Full --------   Above Full   Capacity
  Conduit                Both Ends  Upstream  Dnstream   Normal Flow   Limited
  ----------------------------------------------------------------------------
  11C10                      23.86     23.87     87.16      1.52         0.01
  5C4                         0.01      0.01    216.98      0.01         0.01
  4C3                        89.31    104.20    158.80     14.47         0.01
  3C2                         0.01      0.01    198.41      0.01         0.01
  2C1                        34.56     34.56    152.79      1.29         0.01
  9C8                         0.52      0.52     18.95      0.01         0.01
  8C6                         5.36      5.59     57.04      0.60         0.01
  6C5                        28.05     29.76     37.79      9.43         0.01
  7C6                         0.01      0.01     28.95      0.01         0.01
  
  
  ***************************
  Link Pollutant Load Summary
  ***************************
  
  ----------------------------------
                                 TSS
  Link                           lbs
  ----------------------------------
  11C10                     1300.521
  5C4                       1044.738
  4C3                          6.772
  3C2                          0.741
  2C1                        127.292
  9C8                        628.391
  8C6                       1136.267
  6C5                        109.943
  7C6                        399.329
  10C4                       375.594
  O9                         638.025
  O8                        1152.475
  O6                         167.375
  O10                        360.626
  O11                       1357.772
  O7                         395.363
  O5                        1041.295
  O4                           7.315
  O3                           0.739
  O2                         124.500
  O1                          85.695
  

  Analysis begun on:  Sat Mar  2 18:08:42 2024
  Analysis ended on:  Sat Mar  2 18:09:00 2024
  Total elapsed time: 00:00:18