
  EPA STORM WATER MANAGEMENT MODEL - VERSION 5.2 (Build 5.2.4)
  PYSWMM TOOLKIT API - VERSION v1.0 (2023-11-27)
  ------------------------------------------------------------

  Gamma 
  Anon 
  WARNING 07: routing time step reduced to the wet weather time step 
  
  ****************
  Analysis Options
  ****************
  Flow Units ............... CFS
  Process Models:
    Rainfall/Runoff ........ YES
    RDII ................... NO
    Snowmelt ............... NO
    Groundwater ............ NO
    Flow Routing ........... YES
    Ponding Allowed ........ YES
    Water Quality .......... YES
  Infiltration Method ...... GREEN_AMPT
  Flow Routing Method ...... DYNWAVE
  Surcharge Method ......... EXTRAN
  Starting Date ............ 03/01/2021 00:00:00
  Ending Date .............. 10/15/2021 00:00:00
  Antecedent Dry Days ...... 5.0
  Report Time Step ......... 00:05:00
  Wet Time Step ............ 00:01:00
  Dry Time Step ............ 00:01:00
  Routing Time Step ........ 60.00 sec
  Variable Time Step ....... YES
  Maximum Trials ........... 4
  Number of Threads ........ 1
  Head Tolerance ........... 0.005000 ft
  
  
  **************************        Volume         Depth
  Runoff Quantity Continuity     acre-feet        inches
  **************************     ---------       -------
  Total Precipitation ......       464.683        27.075
  Evaporation Loss .........         0.000         0.000
  Infiltration Loss ........       177.343        10.333
  Surface Runoff ...........       286.807        16.711
  Final Storage ............         0.632         0.037
  Continuity Error (%) .....        -0.021
  
  
  **************************           TSS
  Runoff Quality Continuity            lbs
  **************************    ----------
  Initial Buildup ..........      3394.520
  Surface Buildup ..........     18533.376
  Wet Deposition ...........         0.000
  Sweeping Removal .........         0.000
  Infiltration Loss ........         0.000
  BMP Removal ..............         0.000
  Surface Runoff ...........     18252.555
  Remaining Buildup ........      3675.341
  Continuity Error (%) .....         0.000
  
  
  **************************        Volume        Volume
  Flow Routing Continuity        acre-feet      10^6 gal
  **************************     ---------     ---------
  Dry Weather Inflow .......         0.000         0.000
  Wet Weather Inflow .......       286.457        93.346
  Groundwater Inflow .......         0.000         0.000
  RDII Inflow ..............         0.000         0.000
  External Inflow ..........         0.000         0.000
  External Outflow .........       238.218        77.627
  Flooding Loss ............        30.163         9.829
  Evaporation Loss .........         0.000         0.000
  Exfiltration Loss ........         0.000         0.000
  Initial Stored Volume ....         0.000         0.000
  Final Stored Volume ......        18.103         5.899
  Continuity Error (%) .....        -0.010
  
  
  **************************           TSS
  Quality Routing Continuity           lbs
  **************************    ----------
  Dry Weather Inflow .......         0.000
  Wet Weather Inflow .......     18230.611
  Groundwater Inflow .......         0.000
  RDII Inflow ..............         0.000
  External Inflow ..........         0.000
  External Outflow .........         0.045
  Flooding Loss ............       150.952
  Exfiltration Loss ........         0.000
  Mass Reacted .............     18064.155
  Initial Stored Mass ......         0.000
  Final Stored Mass ........         0.412
  Continuity Error (%) .....         0.083
  
  
  ***************************
  Time-Step Critical Elements
  ***************************
  Link 3C2 (87.63%)
  Link 5C4 (4.06%)
  Link 7C6 (3.26%)
  
  
  ********************************
  Highest Flow Instability Indexes
  ********************************
  Link O3 (134)
  Link 3C2 (134)
  Link O2 (133)
  Link 7C6 (35)
  Link O7 (8)
  
  
  *********************************
  Most Frequent Nonconverging Nodes
  *********************************
  Node O (0.78%)
  Node J22 (0.75%)
  Node J13 (0.02%)
  Node J23 (0.01%)
  Node 9 (0.01%)
  
  
  *************************
  Routing Time Step Summary
  *************************
  Minimum Time Step           :     1.62 sec
  Average Time Step           :    27.38 sec
  Maximum Time Step           :    60.00 sec
  % of Time in Steady State   :     0.00
  Average Iterations per Step :     3.10
  % of Steps Not Converging   :     0.78
  Time Step Frequencies       :
     60.000 - 23.031 sec      :    73.67 %
     23.031 -  8.841 sec      :    25.61 %
      8.841 -  3.393 sec      :     0.72 %
      3.393 -  1.303 sec      :     0.00 %
      1.303 -  0.500 sec      :     0.00 %
  
  
  ***************************
  Subcatchment Runoff Summary
  ***************************
  
  ------------------------------------------------------------------------------------------------------------------------------
                            Total      Total      Total      Total     Imperv       Perv      Total       Total     Peak  Runoff
                           Precip      Runon       Evap      Infil     Runoff     Runoff     Runoff      Runoff   Runoff   Coeff
  Subcatchment                 in         in         in         in         in         in         in    10^6 gal      CFS
  ------------------------------------------------------------------------------------------------------------------------------
  102                       24.75       0.00       0.00      10.88      13.83       0.01      13.84        1.07     3.84   0.559
  103                       24.75       0.00       0.00      14.54      10.13       0.06      10.19        1.55     6.51   0.412
  115                       30.16       0.00       0.00      18.45      11.44       0.25      11.69        3.27    13.02   0.388
  120                       30.16       0.00       0.00      14.30      15.66       0.17      15.83        2.88    12.24   0.525
  1472                      24.75       0.00       0.00       8.85      15.81       0.06      15.87        1.38     5.66   0.641
  1497                      30.16       0.00       0.00       4.17      25.89       0.06      25.95       10.55    38.05   0.860
  1499                      26.23       0.00       0.00       1.27      24.87       0.05      24.91       17.07    63.83   0.950
  1503                      26.23       0.00       0.00       6.65      19.37       0.17      19.54        0.71     3.07   0.745
  1506                      26.03       0.00       0.00      12.73      13.25       0.02      13.27        3.65    16.87   0.510
  1570                      24.75       0.00       0.00      16.75       7.91       0.08       7.99        1.70     7.96   0.323
  1648                      30.16       0.00       0.00      16.49      13.55       0.10      13.65        1.00     3.97   0.452
  1736                      30.16       0.00       0.00      13.49      16.56       0.08      16.65        6.78    25.90   0.552
  1780                      30.16       0.00       0.00      18.00      12.05       0.10      12.15        0.77     3.18   0.403
  54                        26.23       0.00       0.00       3.36      22.77       0.05      22.82       22.54    88.51   0.870
  57                        26.23       0.00       0.00      17.75       8.38       0.09       8.46        2.33     9.90   0.323
  62                        26.23       0.00       0.00      16.38       9.43       0.41       9.84        2.82    18.51   0.375
  93                        30.16       0.00       0.00      13.74      16.26       0.14      16.40        3.66    15.22   0.544
  94                        26.03       0.00       0.00      16.74       9.09       0.18       9.28        3.22    24.84   0.356
  97                        24.75       0.00       0.00      12.55      12.10       0.07      12.18        6.49    29.41   0.492
  
  
  ****************************
  Subcatchment Washoff Summary
  ****************************
  
  ----------------------------------
                                 TSS
  Subcatchment                   lbs
  ----------------------------------
  102                        215.684
  103                        313.686
  115                        656.544
  120                        581.375
  1472                       279.670
  1497                      2065.797
  1499                      3171.988
  1503                       139.994
  1506                       737.990
  1570                       344.288
  1648                       202.966
  1736                      1370.169
  1780                       155.305
  54                        4276.946
  57                         466.737
  62                         570.589
  93                         740.388
  94                         649.242
  97                        1313.197
  ----------------------------------
  System                   18252.555
  
  
  ******************
  Node Depth Summary
  ******************
  
  ---------------------------------------------------------------------------------
                                 Average  Maximum  Maximum  Time of Max    Reported
                                   Depth    Depth      HGL   Occurrence   Max Depth
  Node                 Type         Feet     Feet     Feet  days hr:min        Feet
  ---------------------------------------------------------------------------------
  J13                  JUNCTION     0.02     1.00   889.17   116  16:52        1.00
  J14                  JUNCTION     0.05     0.19   881.19   117  00:50        0.19
  J15                  JUNCTION     0.04     1.00   872.00   111  21:07        1.00
  J18                  JUNCTION     0.04     1.00   875.22   100  15:04        1.00
  J19                  JUNCTION     0.08     0.16   858.44   206  02:10        0.16
  J22                  JUNCTION     1.06     1.40   880.40    50  17:14        1.40
  J23                  JUNCTION     0.03     0.64   868.64   116  17:23        0.64
  J24                  JUNCTION     0.17     0.27   846.27   209  00:41        0.27
  J25                  JUNCTION     0.13     0.28   832.78   116  23:49        0.28
  J26                  JUNCTION     0.18     0.64   822.14   116  23:02        0.63
  O                    OUTFALL      0.00     0.00   810.00     0  00:00        0.00
  11                   STORAGE      0.09     7.03   881.25   164  02:05        7.03
  9                    STORAGE      0.03     7.83   896.00   116  17:16        7.49
  5                    STORAGE      0.07     5.35   873.35   116  17:21        5.33
  4                    STORAGE      5.06     9.30   855.30   117  05:11        9.30
  10                   STORAGE      4.77    10.99   869.27   206  06:07       10.99
  3                    STORAGE      0.24     0.60   833.10   116  23:49        0.60
  1                    STORAGE      3.14     7.20   817.20   117  04:59        7.20
  2                    STORAGE      0.30     1.09   822.59   116  23:02        1.06
  6                    STORAGE      8.53     9.51   880.51   116  17:18        9.51
  7                    STORAGE      1.60     7.02   886.02   206  18:02        7.02
  8                    STORAGE      2.40     7.86   888.86   137  14:00        7.86
  
  
  *******************
  Node Inflow Summary
  *******************
  
  -------------------------------------------------------------------------------------------------
                                  Maximum  Maximum                  Lateral       Total        Flow
                                  Lateral    Total  Time of Max      Inflow      Inflow     Balance
                                   Inflow   Inflow   Occurrence      Volume      Volume       Error
  Node                 Type           CFS      CFS  days hr:min    10^6 gal    10^6 gal     Percent
  -------------------------------------------------------------------------------------------------
  J13                  JUNCTION      0.00    13.64   116  17:16           0        3.21       0.010
  J14                  JUNCTION      0.00     0.47   117  00:50           0        6.71      -0.001
  J15                  JUNCTION      0.00     1.67   116  17:17           0        2.64      -0.005
  J18                  JUNCTION      0.00    12.81   164  02:05           0        14.7      -0.012
  J19                  JUNCTION      0.00     0.78   206  02:10           0        25.9      -0.001
  J22                  JUNCTION      0.00     3.40   116  17:19           0         7.9       0.436
  J23                  JUNCTION      0.00    11.33   116  17:21           0        10.4       0.018
  J24                  JUNCTION      0.00     0.87   209  00:40           0        53.8       0.000
  J25                  JUNCTION      0.00     2.00   116  23:49           0        56.2       0.674
  J26                  JUNCTION      0.00     3.52   116  23:01           0        56.7      -0.002
  O                    OUTFALL       0.00     1.53   117  04:59           0        77.6       0.000
  11                   STORAGE      58.17    58.17   164  01:30        14.7        14.7       0.101
  9                    STORAGE      24.84    24.84   116  17:15        3.21        3.21       0.027
  5                    STORAGE      35.07    35.07   116  17:15        7.86        10.5       0.062
  4                    STORAGE      82.34    85.20   116  23:00        19.9        56.2       0.069
  10                   STORAGE      53.26    57.51   164  01:30        14.2        26.2      -0.143
  3                    STORAGE       9.90    10.59   116  23:00        2.33        56.1      -0.350
  1                    STORAGE      88.51    91.91   116  23:00        22.5        79.2       0.007
  2                    STORAGE       3.07     4.42   116  22:59        0.71        56.5      -0.346
  6                    STORAGE       6.51     6.87   116  17:15        1.55        9.06      -0.004
  7                    STORAGE      11.75    11.75   116  17:15        2.77        2.78       0.043
  8                    STORAGE      16.87    20.85   116  17:15        3.65        6.73      -0.009
  
  
  **********************
  Node Surcharge Summary
  **********************
  
  Surcharging occurs when water rises above the top of the highest conduit.
  ---------------------------------------------------------------------
                                               Max. Height   Min. Depth
                                   Hours       Above Crown    Below Rim
  Node                 Type      Surcharged           Feet         Feet
  ---------------------------------------------------------------------
  J13                  JUNCTION        2.09          0.000        0.000
  J15                  JUNCTION        1.00          0.000        0.000
  J18                  JUNCTION       30.30          0.000        0.000
  J22                  JUNCTION     1794.08          0.000        0.000
  
  
  *********************
  Node Flooding Summary
  *********************
  
  Flooding refers to all water that overflows a node, whether it ponds or not.
  --------------------------------------------------------------------------
                                                             Total   Maximum
                                 Maximum   Time of Max       Flood    Ponded
                        Hours       Rate    Occurrence      Volume     Depth
  Node                 Flooded       CFS   days hr:min    10^6 gal      Feet
  --------------------------------------------------------------------------
  J13                     2.09      9.73    116  17:16       0.133     0.000
  J15                     1.00      1.64    116  17:17       0.023     0.000
  J18                    30.29      8.80    164  02:05       2.624     0.000
  J22                  1765.30      3.40    116  17:20       7.046     0.000
  
  
  **********************
  Storage Volume Summary
  **********************
  
  ------------------------------------------------------------------------------------------------
                         Average    Avg   Evap  Exfil     Maximum    Max    Time of Max    Maximum
                          Volume   Pcnt   Pcnt   Pcnt      Volume   Pcnt     Occurrence    Outflow
  Storage Unit          1000 ft³   Full   Loss   Loss    1000 ft³   Full    days hr:min        CFS
  ------------------------------------------------------------------------------------------------
  11                       0.426    0.2    0.0    0.0      74.219   26.9     164  02:05      12.81
  9                        0.006    0.0    0.0    0.0       9.648   74.4     116  17:16      13.64
  5                        0.164    0.4    0.0    0.0      22.819   50.2     116  17:21      12.89
  4                      506.828   45.1    0.0    0.0    1028.346   91.6     117  05:11       0.87
  10                     137.568   19.9    0.0    0.0     467.083   67.7     206  06:07       0.78
  3                       18.793    1.7    0.0    0.0      48.227    4.4     116  23:49       2.00
  1                      261.780   25.0    0.0    0.0     675.545   64.4     117  04:59       1.53
  2                        0.136    0.5    0.0    0.0       1.267    4.5     116  23:02       3.52
  6                      154.034   27.2    0.0    0.0     180.448   31.8     116  17:18       3.22
  7                        5.548    7.5    0.0    0.0      47.202   63.7     206  18:02       0.51
  8                        8.754    6.2    0.0    0.0      89.686   63.7     137  14:00       0.47
  
  
  ***********************
  Outfall Loading Summary
  ***********************
  
  -------------------------------------------------------------------------
                         Flow       Avg       Max       Total         Total
                         Freq      Flow      Flow      Volume           TSS
  Outfall Node           Pcnt       CFS       CFS    10^6 gal           lbs
  -------------------------------------------------------------------------
  O                     94.89      0.62      1.53      77.621         0.045
  -------------------------------------------------------------------------
  System                94.89      0.62      1.53      77.621         0.045
  
  
  ********************
  Link Flow Summary
  ********************
  
  -----------------------------------------------------------------------------
                                 Maximum  Time of Max   Maximum    Max/    Max/
                                  |Flow|   Occurrence   |Veloc|    Full    Full
  Link                 Type          CFS  days hr:min    ft/sec    Flow   Depth
  -----------------------------------------------------------------------------
  11C10                CONDUIT      5.56   204  15:40      7.23    1.00    1.00
  5C4                  CONDUIT     11.33   116  17:22     16.59    0.71    0.82
  4C3                  CONDUIT      0.87   209  00:42      4.96    0.16    0.43
  3C2                  CONDUIT      2.00   116  23:49      4.91    0.18    0.64
  2C1                  CONDUIT      3.49   116  23:02      5.06    0.63    0.82
  9C8                  CONDUIT      6.25   111  21:00      8.22    0.83    1.00
  8C6                  CONDUIT      0.47   117  00:50      2.24    0.08    0.60
  6C5                  CONDUIT      1.67   116  17:17      2.20    0.72    1.00
  7C6                  CONDUIT      3.22   116  17:19      2.09    0.12    1.00
  10C4                 CONDUIT      0.78   206  02:10      0.19    0.00    0.51
  O9                   ORIFICE     13.64   116  17:16                          
  O8                   ORIFICE      0.47   117  00:50                          
  O6                   ORIFICE      0.12    99  10:10                          
  O10                  ORIFICE      0.78   206  02:10                          
  O11                  ORIFICE     12.81   164  02:05                          
  O7                   ORIFICE      0.51   137  23:05                          
  O5                   ORIFICE     11.33   116  17:21                          
  O4                   ORIFICE      0.87   209  00:40                          
  O3                   ORIFICE      2.00   116  23:49                          
  O2                   ORIFICE      3.52   116  23:01                          
  O1                   ORIFICE      1.53   117  04:59                          
  
  
  ***************************
  Flow Classification Summary
  ***************************
  
  -------------------------------------------------------------------------------------
                      Adjusted    ---------- Fraction of Time in Flow Class ---------- 
                       /Actual         Up    Down  Sub   Sup   Up    Down  Norm  Inlet 
  Conduit               Length    Dry  Dry   Dry   Crit  Crit  Crit  Crit  Ltd   Ctrl  
  -------------------------------------------------------------------------------------
  11C10                   1.00   0.11  0.16  0.00  0.73  0.00  0.00  0.00  0.88  0.00
  5C4                     1.00   0.11  0.20  0.00  0.68  0.01  0.00  0.00  0.89  0.00
  4C3                     1.00   0.11  0.00  0.00  0.00  0.89  0.00  0.00  0.89  0.00
  3C2                     1.00   0.11  0.00  0.00  0.00  0.89  0.00  0.00  0.89  0.00
  2C1                     1.00   0.11  0.00  0.00  0.89  0.00  0.00  0.00  0.89  0.00
  9C8                     1.00   0.08  0.52  0.00  0.40  0.00  0.00  0.00  0.92  0.00
  8C6                     1.00   0.11  0.12  0.00  0.77  0.00  0.00  0.00  0.89  0.00
  6C5                     1.00   0.11  0.41  0.00  0.12  0.36  0.00  0.00  0.46  0.00
  7C6                     1.00   0.11  0.08  0.00  0.81  0.00  0.00  0.00  0.10  0.00
  10C4                    1.00   0.11  0.01  0.00  0.88  0.00  0.00  0.00  0.89  0.00
  
  
  *************************
  Conduit Surcharge Summary
  *************************
  
  ----------------------------------------------------------------------------
                                                           Hours        Hours 
                         --------- Hours Full --------   Above Full   Capacity
  Conduit                Both Ends  Upstream  Dnstream   Normal Flow   Limited
  ----------------------------------------------------------------------------
  11C10                      30.30     30.30   4872.39      0.01         0.01
  5C4                         0.01      0.01   4870.71      0.01         0.01
  3C2                         0.01      0.01      0.31      0.01         0.01
  2C1                         0.01      0.01   4846.65      0.01         0.01
  9C8                         2.09      2.09   4740.44      0.01         0.01
  8C6                         0.01      0.01   4870.59      0.01         0.01
  6C5                         1.00      1.00     13.95      0.01         0.01
  7C6                         0.01      0.01   4813.33      0.01         0.01
  10C4                        0.01      0.01   1189.20      0.01         0.01
  
  
  ***************************
  Link Pollutant Load Summary
  ***************************
  
  ----------------------------------
                                 TSS
  Link                           lbs
  ----------------------------------
  11C10                     1373.744
  5C4                       1057.394
  4C3                          0.007
  3C2                          0.492
  2C1                        131.158
  9C8                        612.567
  8C6                          0.552
  6C5                          5.791
  7C6                          2.807
  10C4                         0.221
  O9                         635.891
  O8                           0.540
  O6                           0.000
  O10                          0.109
  O11                       1499.686
  O7                           2.843
  O5                        1056.929
  O4                           0.007
  O3                           0.487
  O2                         130.726
  O1                           0.045
  

  Analysis begun on:  Wed Mar 20 08:42:22 2024
  Analysis ended on:  Wed Mar 20 08:48:23 2024
  Total elapsed time: 00:06:01