
  EPA STORM WATER MANAGEMENT MODEL - VERSION 5.2 (Build 5.2.4)
  PYSWMM TOOLKIT API - VERSION v1.0 (2023-11-27)
  ------------------------------------------------------------

  Gamma 
  Anon 
  WARNING 07: routing time step reduced to the wet weather time step 
  
  ****************
  Analysis Options
  ****************
  Flow Units ............... CFS
  Process Models:
    Rainfall/Runoff ........ YES
    RDII ................... NO
    Snowmelt ............... NO
    Groundwater ............ NO
    Flow Routing ........... YES
    Ponding Allowed ........ YES
    Water Quality .......... YES
  Infiltration Method ...... GREEN_AMPT
  Flow Routing Method ...... DYNWAVE
  Surcharge Method ......... EXTRAN
  Starting Date ............ 03/01/2021 00:00:00
  Ending Date .............. 10/15/2021 00:00:00
  Antecedent Dry Days ...... 5.0
  Report Time Step ......... 00:05:00
  Wet Time Step ............ 00:01:00
  Dry Time Step ............ 00:01:00
  Routing Time Step ........ 60.00 sec
  Variable Time Step ....... YES
  Maximum Trials ........... 4
  Number of Threads ........ 1
  Head Tolerance ........... 0.005000 ft
  
  
  **************************        Volume         Depth
  Runoff Quantity Continuity     acre-feet        inches
  **************************     ---------       -------
  Total Precipitation ......       464.683        27.075
  Evaporation Loss .........         0.000         0.000
  Infiltration Loss ........       177.343        10.333
  Surface Runoff ...........       286.807        16.711
  Final Storage ............         0.632         0.037
  Continuity Error (%) .....        -0.021
  
  
  **************************           TSS
  Runoff Quality Continuity            lbs
  **************************    ----------
  Initial Buildup ..........      3394.520
  Surface Buildup ..........     18533.376
  Wet Deposition ...........         0.000
  Sweeping Removal .........         0.000
  Infiltration Loss ........         0.000
  BMP Removal ..............         0.000
  Surface Runoff ...........     18252.555
  Remaining Buildup ........      3675.341
  Continuity Error (%) .....         0.000
  
  
  **************************        Volume        Volume
  Flow Routing Continuity        acre-feet      10^6 gal
  **************************     ---------     ---------
  Dry Weather Inflow .......         0.000         0.000
  Wet Weather Inflow .......       286.511        93.364
  Groundwater Inflow .......         0.000         0.000
  RDII Inflow ..............         0.000         0.000
  External Inflow ..........         0.000         0.000
  External Outflow .........       250.212        81.535
  Flooding Loss ............        18.741         6.107
  Evaporation Loss .........         0.000         0.000
  Exfiltration Loss ........         0.000         0.000
  Initial Stored Volume ....         0.000         0.000
  Final Stored Volume ......        17.687         5.764
  Continuity Error (%) .....        -0.045
  
  
  **************************           TSS
  Quality Routing Continuity           lbs
  **************************    ----------
  Dry Weather Inflow .......         0.000
  Wet Weather Inflow .......     18233.277
  Groundwater Inflow .......         0.000
  RDII Inflow ..............         0.000
  External Inflow ..........         0.000
  External Outflow .........         0.149
  Flooding Loss ............       131.357
  Exfiltration Loss ........         0.000
  Mass Reacted .............     18082.671
  Initial Stored Mass ......         0.000
  Final Stored Mass ........         0.038
  Continuity Error (%) .....         0.105
  
  
  ***************************
  Time-Step Critical Elements
  ***************************
  Link 3C2 (86.72%)
  Link 5C4 (4.70%)
  Link 7C6 (3.49%)
  
  
  ********************************
  Highest Flow Instability Indexes
  ********************************
  Link O3 (127)
  Link 3C2 (127)
  Link O2 (127)
  Link 5C4 (9)
  Link O5 (9)
  
  
  *********************************
  Most Frequent Nonconverging Nodes
  *********************************
  Node O (0.07%)
  Node J25 (0.03%)
  Node J23 (0.01%)
  Node J13 (0.01%)
  Node 9 (0.01%)
  
  
  *************************
  Routing Time Step Summary
  *************************
  Minimum Time Step           :     3.20 sec
  Average Time Step           :    27.63 sec
  Maximum Time Step           :    60.00 sec
  % of Time in Steady State   :     0.00
  Average Iterations per Step :     3.02
  % of Steps Not Converging   :     0.07
  Time Step Frequencies       :
     60.000 - 23.031 sec      :    76.26 %
     23.031 -  8.841 sec      :    22.98 %
      8.841 -  3.393 sec      :     0.76 %
      3.393 -  1.303 sec      :     0.00 %
      1.303 -  0.500 sec      :     0.00 %
  
  
  ***************************
  Subcatchment Runoff Summary
  ***************************
  
  ------------------------------------------------------------------------------------------------------------------------------
                            Total      Total      Total      Total     Imperv       Perv      Total       Total     Peak  Runoff
                           Precip      Runon       Evap      Infil     Runoff     Runoff     Runoff      Runoff   Runoff   Coeff
  Subcatchment                 in         in         in         in         in         in         in    10^6 gal      CFS
  ------------------------------------------------------------------------------------------------------------------------------
  102                       24.75       0.00       0.00      10.88      13.83       0.01      13.84        1.07     3.84   0.559
  103                       24.75       0.00       0.00      14.54      10.13       0.06      10.19        1.55     6.51   0.412
  115                       30.16       0.00       0.00      18.45      11.44       0.25      11.69        3.27    13.02   0.388
  120                       30.16       0.00       0.00      14.30      15.66       0.17      15.83        2.88    12.24   0.525
  1472                      24.75       0.00       0.00       8.85      15.81       0.06      15.87        1.38     5.66   0.641
  1497                      30.16       0.00       0.00       4.17      25.89       0.06      25.95       10.55    38.05   0.860
  1499                      26.23       0.00       0.00       1.27      24.87       0.05      24.91       17.07    63.83   0.950
  1503                      26.23       0.00       0.00       6.65      19.37       0.17      19.54        0.71     3.07   0.745
  1506                      26.03       0.00       0.00      12.73      13.25       0.02      13.27        3.65    16.87   0.510
  1570                      24.75       0.00       0.00      16.75       7.91       0.08       7.99        1.70     7.96   0.323
  1648                      30.16       0.00       0.00      16.49      13.55       0.10      13.65        1.00     3.97   0.452
  1736                      30.16       0.00       0.00      13.49      16.56       0.08      16.65        6.78    25.90   0.552
  1780                      30.16       0.00       0.00      18.00      12.05       0.10      12.15        0.77     3.18   0.403
  54                        26.23       0.00       0.00       3.36      22.77       0.05      22.82       22.54    88.51   0.870
  57                        26.23       0.00       0.00      17.75       8.38       0.09       8.46        2.33     9.90   0.323
  62                        26.23       0.00       0.00      16.38       9.43       0.41       9.84        2.82    18.51   0.375
  93                        30.16       0.00       0.00      13.74      16.26       0.14      16.40        3.66    15.22   0.544
  94                        26.03       0.00       0.00      16.74       9.09       0.18       9.28        3.22    24.84   0.356
  97                        24.75       0.00       0.00      12.55      12.10       0.07      12.18        6.49    29.41   0.492
  
  
  ****************************
  Subcatchment Washoff Summary
  ****************************
  
  ----------------------------------
                                 TSS
  Subcatchment                   lbs
  ----------------------------------
  102                        215.684
  103                        313.686
  115                        656.544
  120                        581.375
  1472                       279.670
  1497                      2065.797
  1499                      3171.988
  1503                       139.994
  1506                       737.990
  1570                       344.288
  1648                       202.966
  1736                      1370.169
  1780                       155.305
  54                        4276.946
  57                         466.737
  62                         570.589
  93                         740.388
  94                         649.242
  97                        1313.197
  ----------------------------------
  System                   18252.555
  
  
  ******************
  Node Depth Summary
  ******************
  
  ---------------------------------------------------------------------------------
                                 Average  Maximum  Maximum  Time of Max    Reported
                                   Depth    Depth      HGL   Occurrence   Max Depth
  Node                 Type         Feet     Feet     Feet  days hr:min        Feet
  ---------------------------------------------------------------------------------
  J13                  JUNCTION     0.02     1.00   889.17   116  16:54        1.00
  J14                  JUNCTION     0.04     0.61   881.61   117  00:25        0.61
  J15                  JUNCTION     0.12     1.00   872.00   111  21:06        1.00
  J18                  JUNCTION     0.04     1.00   875.22   100  15:06        1.00
  J19                  JUNCTION     0.08     0.39   858.67   117  00:57        0.39
  J22                  JUNCTION     0.02     0.24   879.24   116  23:50        0.23
  J23                  JUNCTION     0.05     0.63   868.63   116  17:23        0.63
  J24                  JUNCTION     0.20     1.00   847.00   116  22:57        1.00
  J25                  JUNCTION     0.14     0.48   832.98   117  13:05        0.48
  J26                  JUNCTION     0.22     1.00   822.50   116  22:46        1.00
  O                    OUTFALL      0.00     0.00   810.00     0  00:00        0.00
  11                   STORAGE      0.10     7.03   881.25   164  02:05        7.03
  9                    STORAGE      0.03     7.83   896.00   116  17:16        7.49
  5                    STORAGE      0.12     5.42   873.42   116  17:21        5.40
  4                    STORAGE      4.66     8.36   854.36   117  00:52        8.36
  10                   STORAGE      3.16     8.99   867.27   117  00:53        8.99
  3                    STORAGE      0.28     1.52   834.02   117  13:05        1.52
  1                    STORAGE      4.82     8.04   818.04   116  23:56        8.04
  2                    STORAGE      0.37     2.35   823.85   116  23:32        2.35
  6                    STORAGE      1.96     8.21   879.21   207  19:26        8.21
  7                    STORAGE      0.49     5.59   884.59   116  23:50        5.59
  8                    STORAGE      0.91     6.35   887.35   137  09:58        6.35
  
  
  *******************
  Node Inflow Summary
  *******************
  
  -------------------------------------------------------------------------------------------------
                                  Maximum  Maximum                  Lateral       Total        Flow
                                  Lateral    Total  Time of Max      Inflow      Inflow     Balance
                                   Inflow   Inflow   Occurrence      Volume      Volume       Error
  Node                 Type           CFS      CFS  days hr:min    10^6 gal    10^6 gal     Percent
  -------------------------------------------------------------------------------------------------
  J13                  JUNCTION      0.00    13.63   116  17:16           0        3.21      -0.093
  J14                  JUNCTION      0.00     3.63   137  10:00           0        6.76      -0.029
  J15                  JUNCTION      0.00     1.78   116  17:22           0        11.1       0.014
  J18                  JUNCTION      0.00    12.81   164  02:05           0        14.7      -0.018
  J19                  JUNCTION      0.00     5.07   117  00:55           0        26.5      -0.002
  J22                  JUNCTION      0.00     1.66   116  23:50           0        2.77      -0.011
  J23                  JUNCTION      0.00    11.41   116  17:21           0        18.9       0.011
  J24                  JUNCTION      0.00     9.79   117  00:52           0        62.8       0.001
  J25                  JUNCTION      0.00     5.32   117  13:05           0        63.9       0.585
  J26                  JUNCTION      0.00     6.07   116  23:32           0        64.4       0.005
  O                    OUTFALL       0.00     9.28   116  23:56           0        81.5       0.000
  11                   STORAGE      58.17    58.17   164  01:30        14.7        14.7       0.097
  9                    STORAGE      24.84    24.84   116  17:15        3.21        3.21       0.013
  5                    STORAGE      35.07    35.07   116  17:15        7.86        18.9       0.018
  4                    STORAGE      82.34    87.69   116  23:00        19.9        65.3       0.063
  10                   STORAGE      53.26    57.70   164  01:30        14.2        26.5      -0.174
  3                    STORAGE       9.90    15.44   116  23:00        2.33        63.8      -0.311
  1                    STORAGE      88.51    92.26   116  23:00        22.5        84.6       0.013
  2                    STORAGE       3.07     7.48   116  23:00       0.711        64.2      -0.305
  6                    STORAGE       6.51     8.57   116  17:15        1.55        11.1       0.004
  7                    STORAGE      11.75    11.75   116  17:15        2.77        2.77       0.040
  8                    STORAGE      16.87    21.08   116  17:15        3.65        6.77       0.092
  
  
  **********************
  Node Surcharge Summary
  **********************
  
  Surcharging occurs when water rises above the top of the highest conduit.
  ---------------------------------------------------------------------
                                               Max. Height   Min. Depth
                                   Hours       Above Crown    Below Rim
  Node                 Type      Surcharged           Feet         Feet
  ---------------------------------------------------------------------
  J13                  JUNCTION        1.00          0.000        0.000
  J15                  JUNCTION        1.22          0.000        0.000
  J18                  JUNCTION       28.19          0.000        0.000
  J24                  JUNCTION       26.92          0.000        0.000
  J26                  JUNCTION       84.68          0.000        0.000
  
  
  *********************
  Node Flooding Summary
  *********************
  
  Flooding refers to all water that overflows a node, whether it ponds or not.
  --------------------------------------------------------------------------
                                                             Total   Maximum
                                 Maximum   Time of Max       Flood    Ponded
                        Hours       Rate    Occurrence      Volume     Depth
  Node                 Flooded       CFS   days hr:min    10^6 gal      Feet
  --------------------------------------------------------------------------
  J13                     1.00      9.49    116  17:16       0.096     0.000
  J15                     1.22      1.78    116  17:22       0.032     0.000
  J18                    28.17      8.62    164  02:05       2.379     0.000
  J24                    26.92      4.29    117  00:55       1.331     0.000
  J26                    84.66      2.55    116  23:33       2.268     0.000
  
  
  **********************
  Storage Volume Summary
  **********************
  
  ------------------------------------------------------------------------------------------------
                         Average    Avg   Evap  Exfil     Maximum    Max    Time of Max    Maximum
                          Volume   Pcnt   Pcnt   Pcnt      Volume   Pcnt     Occurrence    Outflow
  Storage Unit          1000 ft³   Full   Loss   Loss    1000 ft³   Full    days hr:min        CFS
  ------------------------------------------------------------------------------------------------
  11                       0.453    0.2    0.0    0.0      74.203   26.9     164  02:05      12.81
  9                        0.006    0.0    0.0    0.0       9.638   74.3     116  17:16      13.63
  5                        0.255    0.6    0.0    0.0      23.126   50.8     116  17:21      13.01
  4                      452.267   40.3    0.0    0.0     902.498   80.4     117  00:52       9.79
  10                      82.970   12.0    0.0    0.0     332.263   48.2     117  00:53       5.07
  3                       22.688    2.1    0.0    0.0     128.243   11.8     117  13:05       5.32
  1                      416.863   39.8    0.0    0.0     779.588   74.4     116  23:56       9.28
  2                        0.278    1.0    0.0    0.0       4.125   14.6     116  23:32       6.07
  6                       21.620    3.8    0.0    0.0     133.173   23.5     207  19:26       0.29
  7                        2.074    2.8    0.0    0.0      34.300   46.3     116  23:50       1.66
  8                        3.919    2.8    0.0    0.0      54.575   38.8     137  09:58       3.63
  
  
  ***********************
  Outfall Loading Summary
  ***********************
  
  -------------------------------------------------------------------------
                         Flow       Avg       Max       Total         Total
                         Freq      Flow      Flow      Volume           TSS
  Outfall Node           Pcnt       CFS       CFS    10^6 gal           lbs
  -------------------------------------------------------------------------
  O                     94.90      0.91      9.28      81.529         0.149
  -------------------------------------------------------------------------
  System                94.90      0.91      9.28      81.529         0.149
  
  
  ********************
  Link Flow Summary
  ********************
  
  -----------------------------------------------------------------------------
                                 Maximum  Time of Max   Maximum    Max/    Max/
                                  |Flow|   Occurrence   |Veloc|    Full    Full
  Link                 Type          CFS  days hr:min    ft/sec    Flow   Depth
  -----------------------------------------------------------------------------
  11C10                CONDUIT      5.94   181  18:26      9.36    1.07    1.00
  5C4                  CONDUIT     11.41   116  17:21     16.64    0.71    0.82
  4C3                  CONDUIT      5.99   116  22:56      8.38    1.07    1.00
  3C2                  CONDUIT      5.32   117  13:05      8.53    0.47    0.74
  2C1                  CONDUIT      4.29   118  01:17      5.58    0.77    1.00
  9C8                  CONDUIT      6.31   111  21:00      8.46    0.83    1.00
  8C6                  CONDUIT      3.63   137  10:01      5.49    0.62    0.81
  6C5                  CONDUIT      1.60   116  17:22      2.34    0.69    1.00
  7C6                  CONDUIT      1.68   116  23:50      3.25    0.06    0.58
  10C4                 CONDUIT      5.07   117  00:58      1.58    0.01    0.53
  O9                   ORIFICE     13.63   116  17:16                          
  O8                   ORIFICE      3.63   137  10:00                          
  O6                   ORIFICE      0.29   208  09:50                          
  O10                  ORIFICE      5.07   117  00:55                          
  O11                  ORIFICE     12.81   164  02:05                          
  O7                   ORIFICE      1.66   116  23:50                          
  O5                   ORIFICE     11.41   116  17:21                          
  O4                   ORIFICE      9.79   117  00:52                          
  O3                   ORIFICE      5.32   117  13:05                          
  O2                   ORIFICE      6.07   116  23:32                          
  O1                   ORIFICE      9.28   116  23:56                          
  
  
  ***************************
  Flow Classification Summary
  ***************************
  
  -------------------------------------------------------------------------------------
                      Adjusted    ---------- Fraction of Time in Flow Class ---------- 
                       /Actual         Up    Down  Sub   Sup   Up    Down  Norm  Inlet 
  Conduit               Length    Dry  Dry   Dry   Crit  Crit  Crit  Crit  Ltd   Ctrl  
  -------------------------------------------------------------------------------------
  11C10                   1.00   0.11  0.14  0.00  0.75  0.01  0.00  0.00  0.88  0.00
  5C4                     1.00   0.08  0.00  0.00  0.88  0.04  0.00  0.00  0.90  0.00
  4C3                     1.00   0.08  0.00  0.00  0.03  0.89  0.00  0.00  0.88  0.00
  3C2                     1.00   0.10  0.00  0.00  0.01  0.89  0.00  0.00  0.89  0.00
  2C1                     1.00   0.11  0.00  0.00  0.89  0.00  0.00  0.00  0.86  0.00
  9C8                     1.00   0.08  0.03  0.00  0.88  0.01  0.00  0.00  0.50  0.00
  8C6                     1.00   0.08  0.35  0.00  0.56  0.01  0.00  0.00  0.92  0.00
  6C5                     1.00   0.08  0.00  0.00  0.45  0.48  0.00  0.00  0.04  0.00
  7C6                     1.00   0.08  0.52  0.00  0.40  0.00  0.00  0.00  0.88  0.00
  10C4                    1.00   0.08  0.04  0.00  0.89  0.00  0.00  0.00  0.89  0.00
  
  
  *************************
  Conduit Surcharge Summary
  *************************
  
  ----------------------------------------------------------------------------
                                                           Hours        Hours 
                         --------- Hours Full --------   Above Full   Capacity
  Conduit                Both Ends  Upstream  Dnstream   Normal Flow   Limited
  ----------------------------------------------------------------------------
  11C10                      28.19     28.19   3757.63      0.45         0.01
  5C4                         0.01      0.01   4870.73      0.01         0.01
  4C3                        24.80     26.92     96.43      4.59         0.01
  3C2                         0.01      0.01    131.87      0.01         0.01
  2C1                        84.66     84.66   4870.66      0.01         0.01
  9C8                         1.00      1.00   1055.29      0.01         0.01
  8C6                         0.01      0.01   1760.34      0.01         0.01
  6C5                         1.22      1.22     19.08      0.01         0.01
  7C6                         0.01      0.01   1482.69      0.01         0.01
  10C4                        0.01      0.01     82.66      0.01         0.01
  
  
  ***************************
  Link Pollutant Load Summary
  ***************************
  
  ----------------------------------
                                 TSS
  Link                           lbs
  ----------------------------------
  11C10                     1377.807
  5C4                       1057.847
  4C3                          0.058
  3C2                          0.700
  2C1                        123.934
  9C8                        624.426
  8C6                         45.223
  6C5                          6.873
  7C6                         17.697
  10C4                         2.238
  O9                         637.777
  O8                          43.254
  O6                           0.313
  O10                          1.470
  O11                       1484.488
  O7                          16.819
  O5                        1057.235
  O4                           0.056
  O3                           0.697
  O2                         127.078
  O1                           0.149
  

  Analysis begun on:  Sun Oct 27 08:54:59 2024
  Analysis ended on:  Sun Oct 27 08:58:51 2024
  Total elapsed time: 00:03:52