
  EPA STORM WATER MANAGEMENT MODEL - VERSION 5.2 (Build 5.2.4)
  PYSWMM TOOLKIT API - VERSION v1.0 (2023-11-27)
  ------------------------------------------------------------

  Gamma 
  Anon 
  WARNING 07: routing time step reduced to the wet weather time step 
  
  ****************
  Analysis Options
  ****************
  Flow Units ............... CFS
  Process Models:
    Rainfall/Runoff ........ YES
    RDII ................... NO
    Snowmelt ............... NO
    Groundwater ............ NO
    Flow Routing ........... YES
    Ponding Allowed ........ YES
    Water Quality .......... YES
  Infiltration Method ...... GREEN_AMPT
  Flow Routing Method ...... DYNWAVE
  Surcharge Method ......... EXTRAN
  Starting Date ............ 03/01/2020 00:00:00
  Ending Date .............. 10/15/2020 00:00:00
  Antecedent Dry Days ...... 5.0
  Report Time Step ......... 00:05:00
  Wet Time Step ............ 00:01:00
  Dry Time Step ............ 00:01:00
  Routing Time Step ........ 60.00 sec
  Variable Time Step ....... YES
  Maximum Trials ........... 4
  Number of Threads ........ 1
  Head Tolerance ........... 0.005000 ft
  
  
  **************************        Volume         Depth
  Runoff Quantity Continuity     acre-feet        inches
  **************************     ---------       -------
  Total Precipitation ......       383.444        22.342
  Evaporation Loss .........         0.000         0.000
  Infiltration Loss ........       149.010         8.682
  Surface Runoff ...........       233.886        13.628
  Final Storage ............         0.632         0.037
  Continuity Error (%) .....        -0.022
  
  
  **************************           TSS
  Runoff Quality Continuity            lbs
  **************************    ----------
  Initial Buildup ..........      3394.520
  Surface Buildup ..........     15660.110
  Wet Deposition ...........         0.000
  Sweeping Removal .........         0.000
  Infiltration Loss ........         0.000
  BMP Removal ..............         0.000
  Surface Runoff ...........     15378.742
  Remaining Buildup ........      3675.888
  Continuity Error (%) .....         0.000
  
  
  **************************        Volume        Volume
  Flow Routing Continuity        acre-feet      10^6 gal
  **************************     ---------     ---------
  Dry Weather Inflow .......         0.000         0.000
  Wet Weather Inflow .......       233.573        76.113
  Groundwater Inflow .......         0.000         0.000
  RDII Inflow ..............         0.000         0.000
  External Inflow ..........         0.000         0.000
  External Outflow .........       188.733        61.501
  Flooding Loss ............        22.342         7.280
  Evaporation Loss .........         0.000         0.000
  Exfiltration Loss ........         0.000         0.000
  Initial Stored Volume ....         0.000         0.000
  Final Stored Volume ......        24.230         7.896
  Continuity Error (%) .....        -0.742
  
  
  **************************           TSS
  Quality Routing Continuity           lbs
  **************************    ----------
  Dry Weather Inflow .......         0.000
  Wet Weather Inflow .......     15357.997
  Groundwater Inflow .......         0.000
  RDII Inflow ..............         0.000
  External Inflow ..........         0.000
  External Outflow .........         0.102
  Flooding Loss ............       138.962
  Exfiltration Loss ........         0.000
  Mass Reacted .............     15202.987
  Initial Stored Mass ......         0.000
  Final Stored Mass ........         0.491
  Continuity Error (%) .....         0.101
  
  
  *************************
  Highest Continuity Errors
  *************************
  Node 6 (-52.91%)
  Node J22 (36.35%)
  
  
  ***************************
  Time-Step Critical Elements
  ***************************
  Link 3C2 (73.87%)
  Link 5C4 (9.59%)
  Link 7C6 (1.75%)
  
  
  ********************************
  Highest Flow Instability Indexes
  ********************************
  Link O3 (119)
  Link 3C2 (117)
  Link O2 (107)
  Link 7C6 (40)
  Link O7 (13)
  
  
  *********************************
  Most Frequent Nonconverging Nodes
  *********************************
  Node O (7.12%)
  Node J22 (6.83%)
  Node J25 (0.22%)
  Node J23 (0.04%)
  Node 9 (0.03%)
  
  
  *************************
  Routing Time Step Summary
  *************************
  Minimum Time Step           :     0.93 sec
  Average Time Step           :    32.96 sec
  Maximum Time Step           :    60.00 sec
  % of Time in Steady State   :     0.00
  Average Iterations per Step :     3.11
  % of Steps Not Converging   :     7.12
  Time Step Frequencies       :
     60.000 - 23.031 sec      :    69.77 %
     23.031 -  8.841 sec      :    29.24 %
      8.841 -  3.393 sec      :     0.98 %
      3.393 -  1.303 sec      :     0.02 %
      1.303 -  0.500 sec      :     0.00 %
  
  
  ***************************
  Subcatchment Runoff Summary
  ***************************
  
  ------------------------------------------------------------------------------------------------------------------------------
                            Total      Total      Total      Total     Imperv       Perv      Total       Total     Peak  Runoff
                           Precip      Runon       Evap      Infil     Runoff     Runoff     Runoff      Runoff   Runoff   Coeff
  Subcatchment                 in         in         in         in         in         in         in    10^6 gal      CFS
  ------------------------------------------------------------------------------------------------------------------------------
  102                       21.94       0.00       0.00       9.65      12.26       0.00      12.26        0.95     4.55   0.559
  103                       21.94       0.00       0.00      12.92       8.98       0.02       9.00        1.37     6.59   0.410
  115                       25.14       0.00       0.00      15.57       9.53       0.02       9.55        2.67    12.06   0.380
  120                       25.14       0.00       0.00      12.07      13.05       0.00      13.05        2.37    11.08   0.519
  1472                      21.94       0.00       0.00       7.89      14.01       0.01      14.02        1.22     5.88   0.639
  1497                      25.14       0.00       0.00       3.52      21.58       0.00      21.58        8.77    40.25   0.858
  1499                      20.90       0.00       0.00       1.04      19.80       0.00      19.80       13.57    78.33   0.948
  1503                      20.90       0.00       0.00       5.43      15.43       0.00      15.43        0.56     3.26   0.738
  1506                      20.94       0.00       0.00      10.26      10.65       0.00      10.65        2.93    10.83   0.509
  1570                      21.94       0.00       0.00      14.89       7.01       0.02       7.03        1.50     7.20   0.320
  1648                      25.14       0.00       0.00      13.83      11.29       0.00      11.29        0.83     3.88   0.449
  1736                      25.14       0.00       0.00      11.31      13.80       0.00      13.80        5.62    26.25   0.549
  1780                      25.14       0.00       0.00      15.08      10.04       0.00      10.04        0.64     2.97   0.399
  54                        20.90       0.00       0.00       2.72      18.13       0.00      18.13       17.91   103.05   0.868
  57                        20.90       0.00       0.00      14.21       6.67       0.00       6.67        1.84    10.52   0.319
  62                        20.90       0.00       0.00      13.38       7.51       0.00       7.51        2.15    12.59   0.359
  93                        25.14       0.00       0.00      11.56      13.55       0.00      13.55        3.02    14.14   0.539
  94                        20.94       0.00       0.00      13.55       7.31       0.06       7.37        2.56    14.14   0.352
  97                        21.94       0.00       0.00      11.18      10.73       0.01      10.74        5.73    27.56   0.489
  
  
  ****************************
  Subcatchment Washoff Summary
  ****************************
  
  ----------------------------------
                                 TSS
  Subcatchment                   lbs
  ----------------------------------
  102                        190.987
  103                        276.997
  115                        535.463
  120                        478.900
  1472                       247.001
  1497                      1772.079
  1499                      2738.924
  1503                       113.257
  1506                       591.482
  1570                       302.909
  1648                       167.845
  1736                      1135.368
  1780                       128.250
  54                        3613.633
  57                         366.862
  62                         434.895
  93                         611.520
  94                         514.826
  97                        1157.545
  ----------------------------------
  System                   15378.742
  
  
  ******************
  Node Depth Summary
  ******************
  
  ---------------------------------------------------------------------------------
                                 Average  Maximum  Maximum  Time of Max    Reported
                                   Depth    Depth      HGL   Occurrence   Max Depth
  Node                 Type         Feet     Feet     Feet  days hr:min        Feet
  ---------------------------------------------------------------------------------
  J13                  JUNCTION     0.01     1.00   889.17    27  05:19        1.00
  J14                  JUNCTION     0.03     1.00   882.00   140  12:42        1.00
  J15                  JUNCTION     0.03     1.00   872.00   131  17:33        1.00
  J18                  JUNCTION     0.04     1.00   875.22    27  05:06        1.00
  J19                  JUNCTION     0.05     0.60   858.88    96  13:00        0.60
  J22                  JUNCTION     0.81     1.40   880.40    37  23:48        1.40
  J23                  JUNCTION     0.03     0.62   868.62   140  12:47        0.61
  J24                  JUNCTION     0.17     0.92   846.92    27  06:30        0.92
  J25                  JUNCTION     0.12     0.46   832.96    79  04:25        0.46
  J26                  JUNCTION     0.18     1.00   822.50    27  13:04        1.00
  O                    OUTFALL      0.00     0.00   810.00     0  00:00        0.00
  11                   STORAGE      0.09     5.66   879.88   166  13:03        5.66
  9                    STORAGE      0.03     3.80   891.97    27  05:31        3.63
  5                    STORAGE      0.07     5.31   873.31   140  12:47        5.18
  4                    STORAGE      3.66     7.21   853.21    78  21:43        7.21
  10                   STORAGE      5.26     8.70   866.98   191  08:46        8.70
  3                    STORAGE      0.24     1.35   833.85    79  04:25        1.35
  1                    STORAGE      4.51     6.96   816.96    78  23:36        6.96
  2                    STORAGE      0.31     1.89   823.39    79  06:22        1.89
  6                    STORAGE      7.05     9.57   880.57   140  12:47        9.57
  7                    STORAGE      3.01     6.06   885.06   131  17:33        6.05
  8                    STORAGE      4.40     6.46   887.46    27  05:47        6.45
  
  
  *******************
  Node Inflow Summary
  *******************
  
  -------------------------------------------------------------------------------------------------
                                  Maximum  Maximum                  Lateral       Total        Flow
                                  Lateral    Total  Time of Max      Inflow      Inflow     Balance
                                   Inflow   Inflow   Occurrence      Volume      Volume       Error
  Node                 Type           CFS      CFS  days hr:min    10^6 gal    10^6 gal     Percent
  -------------------------------------------------------------------------------------------------
  J13                  JUNCTION      0.00     8.73    27  05:31           0        2.55      -0.032
  J14                  JUNCTION      0.00     3.65    27  05:50           0        5.15      -0.006
  J15                  JUNCTION      0.00     1.74   140  12:46           0        3.74       0.024
  J18                  JUNCTION      0.00    11.26   166  13:04           0        12.1      -0.024
  J19                  JUNCTION      0.00    13.43    96  12:56           0        20.5      -0.008
  J22                  JUNCTION      0.00     6.37   153  14:51           0          11      57.120
  J23                  JUNCTION      0.00    11.29   140  12:47           0        10.6       0.038
  J24                  JUNCTION      0.00     5.92    27  09:06           0          45      -0.003
  J25                  JUNCTION      0.00     4.91    79  04:25           0        46.9       0.484
  J26                  JUNCTION      0.00     4.92    79  06:22           0        47.4       0.005
  O                    OUTFALL       0.00     5.39    78  23:36           0        61.5       0.000
  11                   STORAGE      56.24    56.24   140  12:45        12.1        12.1       0.170
  9                    STORAGE      14.14    14.14    27  05:30        2.55        2.55      -0.139
  5                    STORAGE      33.43    33.43   140  12:45        6.93        10.7       0.035
  4                    STORAGE      90.91   101.90   140  12:45        15.7        46.9       0.059
  10                   STORAGE      54.39    59.64   140  12:45        11.8        22.1      -0.059
  3                    STORAGE      10.52    11.63   140  12:45        1.83        46.9      -0.258
  1                    STORAGE     103.05   105.98   140  12:45        17.9        64.8       0.013
  2                    STORAGE       3.26     4.94    79  06:15       0.561        47.2      -0.260
  6                    STORAGE       6.59     9.99    27  05:30        1.37        8.59     -34.604
  7                    STORAGE      11.75    11.75   140  12:45        2.44        2.48      -0.872
  8                    STORAGE      10.83    15.32   140  12:27        2.93        5.39       0.062
  
  
  **********************
  Node Surcharge Summary
  **********************
  
  Surcharging occurs when water rises above the top of the highest conduit.
  ---------------------------------------------------------------------
                                               Max. Height   Min. Depth
                                   Hours       Above Crown    Below Rim
  Node                 Type      Surcharged           Feet         Feet
  ---------------------------------------------------------------------
  J13                  JUNCTION        1.62          0.000        0.000
  J14                  JUNCTION        1.04          0.000        0.000
  J15                  JUNCTION        0.38          0.000        0.000
  J18                  JUNCTION       24.59          0.000        0.000
  J22                  JUNCTION     1696.44          0.000        0.000
  J26                  JUNCTION       33.71          0.000        0.000
  
  
  *********************
  Node Flooding Summary
  *********************
  
  Flooding refers to all water that overflows a node, whether it ponds or not.
  --------------------------------------------------------------------------
                                                             Total   Maximum
                                 Maximum   Time of Max       Flood    Ponded
                        Hours       Rate    Occurrence      Volume     Depth
  Node                 Flooded       CFS   days hr:min    10^6 gal      Feet
  --------------------------------------------------------------------------
  J13                     1.62      4.90     27  05:31       0.091     0.000
  J14                     1.04      0.99    140  12:55       0.016     0.000
  J15                     0.38      1.72    140  12:46       0.009     0.000
  J18                    24.58      7.16    166  13:05       1.759     0.000
  J22                  1105.36      5.06    131  17:31       4.754     0.000
  J26                    33.69      1.00     79  04:10       0.495     0.000
  
  
  **********************
  Storage Volume Summary
  **********************
  
  ------------------------------------------------------------------------------------------------
                         Average    Avg   Evap  Exfil     Maximum    Max    Time of Max    Maximum
                          Volume   Pcnt   Pcnt   Pcnt      Volume   Pcnt     Occurrence    Outflow
  Storage Unit          1000 ft³   Full   Loss   Loss    1000 ft³   Full    days hr:min        CFS
  ------------------------------------------------------------------------------------------------
  11                       0.372    0.1    0.0    0.0      51.718   18.8     166  13:03      11.26
  9                        0.004    0.0    0.0    0.0       3.465   26.7      27  05:31       8.73
  5                        0.176    0.4    0.0    0.0      22.590   49.7     140  12:47      12.99
  4                      355.404   31.7    0.0    0.0     751.084   66.9      78  21:43       5.92
  10                     161.659   23.4    0.0    0.0     314.269   45.6     191  08:46      13.43
  3                       18.950    1.7    0.0    0.0     112.570   10.3      79  04:25       4.91
  1                      390.024   37.2    0.0    0.0     646.057   61.6      78  23:36       5.39
  2                        0.229    0.8    0.0    0.0       2.906   10.3      79  06:22       4.92
  6                      122.608   21.6    0.0    0.0     182.497   32.2     140  12:47       6.35
  7                       15.535   21.0    0.0    0.0      38.543   52.0     131  17:33       2.38
  8                       27.445   19.5    0.0    0.0      56.941   40.4      27  05:47       3.65
  
  
  ***********************
  Outfall Loading Summary
  ***********************
  
  -------------------------------------------------------------------------
                         Flow       Avg       Max       Total         Total
                         Freq      Flow      Flow      Volume           TSS
  Outfall Node           Pcnt       CFS       CFS    10^6 gal           lbs
  -------------------------------------------------------------------------
  O                     91.52      0.77      5.39      61.497         0.102
  -------------------------------------------------------------------------
  System                91.52      0.77      5.39      61.497         0.102
  
  
  ********************
  Link Flow Summary
  ********************
  
  -----------------------------------------------------------------------------
                                 Maximum  Time of Max   Maximum    Max/    Max/
                                  |Flow|   Occurrence   |Veloc|    Full    Full
  Link                 Type          CFS  days hr:min    ft/sec    Flow   Depth
  -----------------------------------------------------------------------------
  11C10                CONDUIT      5.96   129  14:30      9.48    1.08    1.00
  5C4                  CONDUIT     11.29   140  12:47     17.75    0.70    0.81
  4C3                  CONDUIT      5.92    27  09:07      9.58    1.06    0.95
  3C2                  CONDUIT      4.91    79  04:25      8.00    0.43    0.73
  2C1                  CONDUIT      4.54    27  12:46      6.49    0.82    1.00
  9C8                  CONDUIT      6.05   180  06:30      8.12    0.80    1.00
  8C6                  CONDUIT      3.65    27  05:51      7.37    0.62    1.00
  6C5                  CONDUIT      1.74   140  12:46      3.31    0.75    1.00
  7C6                  CONDUIT      6.35   153  14:51     21.05    0.23    1.00
  10C4                 CONDUIT     13.00    96  13:01      3.14    0.02    0.53
  O9                   ORIFICE      8.73    27  05:31                          
  O8                   ORIFICE      3.65    27  05:50                          
  O6                   ORIFICE      0.87    70  23:45                          
  O10                  ORIFICE     13.43    96  12:56                          
  O11                  ORIFICE     11.26   166  13:04                          
  O7                   ORIFICE      2.38    27  05:35                          
  O5                   ORIFICE     11.29   140  12:47                          
  O4                   ORIFICE      5.92    27  09:06                          
  O3                   ORIFICE      4.91    79  04:25                          
  O2                   ORIFICE      4.92    79  06:22                          
  O1                   ORIFICE      5.39    78  23:36                          
  
  
  ***************************
  Flow Classification Summary
  ***************************
  
  -------------------------------------------------------------------------------------
                      Adjusted    ---------- Fraction of Time in Flow Class ---------- 
                       /Actual         Up    Down  Sub   Sup   Up    Down  Norm  Inlet 
  Conduit               Length    Dry  Dry   Dry   Crit  Crit  Crit  Crit  Ltd   Ctrl  
  -------------------------------------------------------------------------------------
  11C10                   1.00   0.08  0.16  0.00  0.76  0.00  0.00  0.00  0.91  0.00
  5C4                     1.00   0.08  0.38  0.00  0.53  0.02  0.00  0.00  0.92  0.00
  4C3                     1.00   0.08  0.06  0.00  0.29  0.58  0.00  0.00  0.85  0.00
  3C2                     1.00   0.08  0.00  0.00  0.04  0.89  0.00  0.00  0.90  0.00
  2C1                     1.00   0.08  0.00  0.00  0.88  0.04  0.00  0.00  0.87  0.00
  9C8                     1.00   0.08  0.49  0.00  0.43  0.00  0.00  0.00  0.90  0.00
  8C6                     1.00   0.08  0.38  0.00  0.54  0.00  0.00  0.00  0.90  0.00
  6C5                     1.00   0.08  0.73  0.00  0.10  0.08  0.00  0.00  0.72  0.00
  7C6                     1.00   0.08  0.19  0.00  0.73  0.00  0.00  0.00  0.25  0.00
  10C4                    1.00   0.08  0.37  0.00  0.55  0.00  0.00  0.00  0.88  0.00
  
  
  *************************
  Conduit Surcharge Summary
  *************************
  
  ----------------------------------------------------------------------------
                                                           Hours        Hours 
                         --------- Hours Full --------   Above Full   Capacity
  Conduit                Both Ends  Upstream  Dnstream   Normal Flow   Limited
  ----------------------------------------------------------------------------
  11C10                      24.61     24.61   4236.14      0.22         0.01
  5C4                         0.01      0.01   3793.06      0.01         0.01
  4C3                         0.01      0.01     37.43      9.95         0.01
  3C2                         0.01      0.01     88.80      0.01         0.01
  2C1                        33.69     33.69   4570.31      0.01         0.01
  9C8                         1.62      1.62   4562.83      0.01         0.01
  8C6                         1.04      1.04   4422.16      0.01         0.01
  6C5                         0.38      0.38     11.93      0.01         0.01
  7C6                         0.01      0.01   4289.75      0.01         0.01
  10C4                        0.01      0.01     35.05      0.01         0.01
  
  
  ***************************
  Link Pollutant Load Summary
  ***************************
  
  ----------------------------------
                                 TSS
  Link                           lbs
  ----------------------------------
  11C10                     1152.149
  5C4                        923.789
  4C3                          1.597
  3C2                          0.382
  2C1                        104.376
  9C8                        491.022
  8C6                          5.241
  6C5                          4.263
  7C6                          2.421
  10C4                        20.883
  O9                         508.683
  O8                           5.320
  O6                           0.096
  O10                         18.746
  O11                       1269.829
  O7                           2.432
  O5                         922.513
  O4                           1.582
  O3                           0.372
  O2                         104.242
  O1                           0.102
  

  Analysis begun on:  Thu Mar 14 15:58:19 2024
  Analysis ended on:  Thu Mar 14 16:02:16 2024
  Total elapsed time: 00:03:57