
  EPA STORM WATER MANAGEMENT MODEL - VERSION 5.2 (Build 5.2.4)
  PYSWMM TOOLKIT API - VERSION v1.0 (2023-11-27)
  ------------------------------------------------------------

  Gamma 
  Anon 
  WARNING 07: routing time step reduced to the wet weather time step 
  
  ****************
  Analysis Options
  ****************
  Flow Units ............... CFS
  Process Models:
    Rainfall/Runoff ........ YES
    RDII ................... NO
    Snowmelt ............... NO
    Groundwater ............ NO
    Flow Routing ........... YES
    Ponding Allowed ........ YES
    Water Quality .......... YES
  Infiltration Method ...... GREEN_AMPT
  Flow Routing Method ...... DYNWAVE
  Surcharge Method ......... EXTRAN
  Starting Date ............ 03/01/2020 00:00:00
  Ending Date .............. 10/15/2020 00:00:00
  Antecedent Dry Days ...... 5.0
  Report Time Step ......... 00:05:00
  Wet Time Step ............ 00:01:00
  Dry Time Step ............ 00:01:00
  Routing Time Step ........ 60.00 sec
  Variable Time Step ....... YES
  Maximum Trials ........... 4
  Number of Threads ........ 1
  Head Tolerance ........... 0.005000 ft
  
  
  **************************        Volume         Depth
  Runoff Quantity Continuity     acre-feet        inches
  **************************     ---------       -------
  Total Precipitation ......       383.444        22.342
  Evaporation Loss .........         0.000         0.000
  Infiltration Loss ........       149.010         8.682
  Surface Runoff ...........       233.886        13.628
  Final Storage ............         0.632         0.037
  Continuity Error (%) .....        -0.022
  
  
  **************************           TSS
  Runoff Quality Continuity            lbs
  **************************    ----------
  Initial Buildup ..........      3394.520
  Surface Buildup ..........     15660.110
  Wet Deposition ...........         0.000
  Sweeping Removal .........         0.000
  Infiltration Loss ........         0.000
  BMP Removal ..............         0.000
  Surface Runoff ...........     15378.742
  Remaining Buildup ........      3675.888
  Continuity Error (%) .....         0.000
  
  
  **************************        Volume        Volume
  Flow Routing Continuity        acre-feet      10^6 gal
  **************************     ---------     ---------
  Dry Weather Inflow .......         0.000         0.000
  Wet Weather Inflow .......       233.604        76.123
  Groundwater Inflow .......         0.000         0.000
  RDII Inflow ..............         0.000         0.000
  External Inflow ..........         0.000         0.000
  External Outflow .........       218.759        71.286
  Flooding Loss ............         5.071         1.653
  Evaporation Loss .........         0.000         0.000
  Exfiltration Loss ........         0.000         0.000
  Initial Stored Volume ....         0.000         0.000
  Final Stored Volume ......         9.907         3.228
  Continuity Error (%) .....        -0.057
  
  
  **************************           TSS
  Quality Routing Continuity           lbs
  **************************    ----------
  Dry Weather Inflow .......         0.000
  Wet Weather Inflow .......     15360.069
  Groundwater Inflow .......         0.000
  RDII Inflow ..............         0.000
  External Inflow ..........         0.000
  External Outflow .........         0.134
  Flooding Loss ............       109.265
  Exfiltration Loss ........         0.000
  Mass Reacted .............     15235.669
  Initial Stored Mass ......         0.000
  Final Stored Mass ........         0.017
  Continuity Error (%) .....         0.098
  
  
  ***************************
  Time-Step Critical Elements
  ***************************
  Link 3C2 (89.10%)
  Link 5C4 (4.73%)
  Link 7C6 (2.50%)
  
  
  ********************************
  Highest Flow Instability Indexes
  ********************************
  Link O3 (136)
  Link 3C2 (136)
  Link O2 (136)
  Link 5C4 (7)
  Link O5 (7)
  
  
  *********************************
  Most Frequent Nonconverging Nodes
  *********************************
  Node O (0.06%)
  Node J25 (0.04%)
  Node J13 (0.01%)
  Node J23 (0.01%)
  Node 9 (0.00%)
  
  
  *************************
  Routing Time Step Summary
  *************************
  Minimum Time Step           :     3.79 sec
  Average Time Step           :    28.00 sec
  Maximum Time Step           :    60.00 sec
  % of Time in Steady State   :     0.00
  Average Iterations per Step :     3.09
  % of Steps Not Converging   :     0.06
  Time Step Frequencies       :
     60.000 - 23.031 sec      :    79.43 %
     23.031 -  8.841 sec      :    19.86 %
      8.841 -  3.393 sec      :     0.71 %
      3.393 -  1.303 sec      :     0.00 %
      1.303 -  0.500 sec      :     0.00 %
  
  
  ***************************
  Subcatchment Runoff Summary
  ***************************
  
  ------------------------------------------------------------------------------------------------------------------------------
                            Total      Total      Total      Total     Imperv       Perv      Total       Total     Peak  Runoff
                           Precip      Runon       Evap      Infil     Runoff     Runoff     Runoff      Runoff   Runoff   Coeff
  Subcatchment                 in         in         in         in         in         in         in    10^6 gal      CFS
  ------------------------------------------------------------------------------------------------------------------------------
  102                       21.94       0.00       0.00       9.65      12.26       0.00      12.26        0.95     4.55   0.559
  103                       21.94       0.00       0.00      12.92       8.98       0.02       9.00        1.37     6.59   0.410
  115                       25.14       0.00       0.00      15.57       9.53       0.02       9.55        2.67    12.06   0.380
  120                       25.14       0.00       0.00      12.07      13.05       0.00      13.05        2.37    11.08   0.519
  1472                      21.94       0.00       0.00       7.89      14.01       0.01      14.02        1.22     5.88   0.639
  1497                      25.14       0.00       0.00       3.52      21.58       0.00      21.58        8.77    40.25   0.858
  1499                      20.90       0.00       0.00       1.04      19.80       0.00      19.80       13.57    78.33   0.948
  1503                      20.90       0.00       0.00       5.43      15.43       0.00      15.43        0.56     3.26   0.738
  1506                      20.94       0.00       0.00      10.26      10.65       0.00      10.65        2.93    10.83   0.509
  1570                      21.94       0.00       0.00      14.89       7.01       0.02       7.03        1.50     7.20   0.320
  1648                      25.14       0.00       0.00      13.83      11.29       0.00      11.29        0.83     3.88   0.449
  1736                      25.14       0.00       0.00      11.31      13.80       0.00      13.80        5.62    26.25   0.549
  1780                      25.14       0.00       0.00      15.08      10.04       0.00      10.04        0.64     2.97   0.399
  54                        20.90       0.00       0.00       2.72      18.13       0.00      18.13       17.91   103.05   0.868
  57                        20.90       0.00       0.00      14.21       6.67       0.00       6.67        1.84    10.52   0.319
  62                        20.90       0.00       0.00      13.38       7.51       0.00       7.51        2.15    12.59   0.359
  93                        25.14       0.00       0.00      11.56      13.55       0.00      13.55        3.02    14.14   0.539
  94                        20.94       0.00       0.00      13.55       7.31       0.06       7.37        2.56    14.14   0.352
  97                        21.94       0.00       0.00      11.18      10.73       0.01      10.74        5.73    27.56   0.489
  
  
  ****************************
  Subcatchment Washoff Summary
  ****************************
  
  ----------------------------------
                                 TSS
  Subcatchment                   lbs
  ----------------------------------
  102                        190.987
  103                        276.997
  115                        535.463
  120                        478.900
  1472                       247.001
  1497                      1772.079
  1499                      2738.924
  1503                       113.257
  1506                       591.482
  1570                       302.909
  1648                       167.845
  1736                      1135.368
  1780                       128.250
  54                        3613.633
  57                         366.862
  62                         434.895
  93                         611.520
  94                         514.826
  97                        1157.545
  ----------------------------------
  System                   15378.742
  
  
  ******************
  Node Depth Summary
  ******************
  
  ---------------------------------------------------------------------------------
                                 Average  Maximum  Maximum  Time of Max    Reported
                                   Depth    Depth      HGL   Occurrence   Max Depth
  Node                 Type         Feet     Feet     Feet  days hr:min        Feet
  ---------------------------------------------------------------------------------
  J13                  JUNCTION     0.01     1.00   889.17    27  05:24        1.00
  J14                  JUNCTION     0.03     1.00   882.00   101  16:10        1.00
  J15                  JUNCTION     0.10     1.00   872.00    27  05:35        1.00
  J18                  JUNCTION     0.03     1.00   875.22    27  05:12        1.00
  J19                  JUNCTION     0.07     0.29   858.57    78  21:55        0.29
  J22                  JUNCTION     0.01     0.47   879.47   140  12:46        0.47
  J23                  JUNCTION     0.05     0.62   868.62   140  12:47        0.62
  J24                  JUNCTION     0.17     0.72   846.72    78  21:42        0.72
  J25                  JUNCTION     0.12     0.42   832.92    79  03:31        0.42
  J26                  JUNCTION     0.18     0.87   822.37    79  03:51        0.87
  O                    OUTFALL      0.00     0.00   810.00     0  00:00        0.00
  11                   STORAGE      0.08     5.68   879.90   166  13:03        5.67
  9                    STORAGE      0.02     3.74   891.91    27  05:31        3.56
  5                    STORAGE      0.10     5.33   873.33   140  12:47        5.20
  4                    STORAGE      4.46     6.79   852.79    78  21:40        6.79
  10                   STORAGE      3.09     7.99   866.27    78  21:45        7.99
  3                    STORAGE      0.24     1.07   833.57    79  03:31        1.07
  1                    STORAGE      4.43     6.82   816.82    78  23:40        6.82
  2                    STORAGE      0.30     1.52   823.02    79  03:57        1.52
  6                    STORAGE      1.43     7.37   878.37    79  07:30        7.37
  7                    STORAGE      0.12     3.83   882.83    27  06:02        3.83
  8                    STORAGE      0.55     5.90   886.90    78  21:19        5.90
  
  
  *******************
  Node Inflow Summary
  *******************
  
  -------------------------------------------------------------------------------------------------
                                  Maximum  Maximum                  Lateral       Total        Flow
                                  Lateral    Total  Time of Max      Inflow      Inflow     Balance
                                   Inflow   Inflow   Occurrence      Volume      Volume       Error
  Node                 Type           CFS      CFS  days hr:min    10^6 gal    10^6 gal     Percent
  -------------------------------------------------------------------------------------------------
  J13                  JUNCTION      0.00     8.63    27  05:31           0        2.55      -0.029
  J14                  JUNCTION      0.00     7.12   101  16:19           0        5.44      -0.035
  J15                  JUNCTION      0.00     1.72   140  12:45           0        9.26       0.021
  J18                  JUNCTION      0.00    11.28   166  13:04           0        12.1      -0.023
  J19                  JUNCTION      0.00     2.70    78  21:45           0        22.3      -0.001
  J22                  JUNCTION      0.00     6.58   140  12:46           0        2.44      -0.018
  J23                  JUNCTION      0.00    11.32   140  12:47           0        16.2       0.006
  J24                  JUNCTION      0.00     4.99    78  22:45           0        52.6       0.001
  J25                  JUNCTION      0.00     4.20    79  03:31           0        54.6       0.757
  J26                  JUNCTION      0.00     4.20    79  04:11           0          55      -0.000
  O                    OUTFALL       0.00     5.22    78  23:40           0        71.3       0.000
  11                   STORAGE      56.24    56.24   140  12:45        12.1        12.1       0.127
  9                    STORAGE      14.14    14.14    27  05:30        2.55        2.55      -0.001
  5                    STORAGE      33.43    33.43   140  12:45        6.93        16.2       0.027
  4                    STORAGE      90.91   102.21   140  12:45        15.7        54.2       0.041
  10                   STORAGE      54.39    58.88   140  12:45        11.8        22.3      -0.194
  3                    STORAGE      10.52    11.94   140  12:45        1.84        54.5      -0.398
  1                    STORAGE     103.05   106.28   140  12:45        17.9        72.9       0.008
  2                    STORAGE       3.26     4.20    79  03:30       0.561        54.8      -0.389
  6                    STORAGE       6.59    13.78   140  12:45        1.37        9.24      -0.022
  7                    STORAGE      11.75    11.75   140  12:45        2.44        2.44       0.031
  8                    STORAGE      10.83    17.69   140  12:27        2.93        5.45       0.112
  
  
  **********************
  Node Surcharge Summary
  **********************
  
  Surcharging occurs when water rises above the top of the highest conduit.
  ---------------------------------------------------------------------
                                               Max. Height   Min. Depth
                                   Hours       Above Crown    Below Rim
  Node                 Type      Surcharged           Feet         Feet
  ---------------------------------------------------------------------
  J13                  JUNCTION        0.68          0.000        0.000
  J14                  JUNCTION        0.52          0.000        0.000
  J15                  JUNCTION        0.54          0.000        0.000
  J18                  JUNCTION       21.95          0.000        0.000
  
  
  *********************
  Node Flooding Summary
  *********************
  
  Flooding refers to all water that overflows a node, whether it ponds or not.
  --------------------------------------------------------------------------
                                                             Total   Maximum
                                 Maximum   Time of Max       Flood    Ponded
                        Hours       Rate    Occurrence      Volume     Depth
  Node                 Flooded       CFS   days hr:min    10^6 gal      Feet
  --------------------------------------------------------------------------
  J13                     0.68      3.15     27  05:31       0.031     0.000
  J14                     0.52      1.71    101  16:20       0.015     0.000
  J15                     0.54      1.70    140  12:45       0.014     0.000
  J18                    21.95      6.18    166  13:04       1.591     0.000
  
  
  **********************
  Storage Volume Summary
  **********************
  
  ------------------------------------------------------------------------------------------------
                         Average    Avg   Evap  Exfil     Maximum    Max    Time of Max    Maximum
                          Volume   Pcnt   Pcnt   Pcnt      Volume   Pcnt     Occurrence    Outflow
  Storage Unit          1000 ft³   Full   Loss   Loss    1000 ft³   Full    days hr:min        CFS
  ------------------------------------------------------------------------------------------------
  11                       0.311    0.1    0.0    0.0      51.932   18.9     166  13:03      11.28
  9                        0.003    0.0    0.0    0.0       3.368   26.0      27  05:31       8.63
  5                        0.218    0.5    0.0    0.0      22.709   49.9     140  12:47      12.87
  4                      429.209   38.2    0.0    0.0     697.643   62.1      78  21:40       4.99
  10                      79.822   11.6    0.0    0.0     273.168   39.6      78  21:45       2.70
  3                       18.749    1.7    0.0    0.0      88.337    8.1      79  03:31       4.20
  1                      377.853   36.0    0.0    0.0     629.025   60.0      78  23:40       5.22
  2                        0.153    0.5    0.0    0.0       2.087    7.4      79  03:57       4.20
  6                       12.416    2.2    0.0    0.0     105.070   18.5      79  07:30       0.28
  7                        0.399    0.5    0.0    0.0      18.502   25.0      27  06:02       6.58
  8                        2.059    1.5    0.0    0.0      45.752   32.5      78  21:19       7.12
  
  
  ***********************
  Outfall Loading Summary
  ***********************
  
  -------------------------------------------------------------------------
                         Flow       Avg       Max       Total         Total
                         Freq      Flow      Flow      Volume           TSS
  Outfall Node           Pcnt       CFS       CFS    10^6 gal           lbs
  -------------------------------------------------------------------------
  O                     96.37      0.63      5.22      71.280         0.134
  -------------------------------------------------------------------------
  System                96.37      0.63      5.22      71.280         0.134
  
  
  ********************
  Link Flow Summary
  ********************
  
  -----------------------------------------------------------------------------
                                 Maximum  Time of Max   Maximum    Max/    Max/
                                  |Flow|   Occurrence   |Veloc|    Full    Full
  Link                 Type          CFS  days hr:min    ft/sec    Flow   Depth
  -----------------------------------------------------------------------------
  11C10                CONDUIT      5.96   101  16:10      8.61    1.08    1.00
  5C4                  CONDUIT     11.32   140  12:47     17.81    0.71    0.81
  4C3                  CONDUIT      4.86    78  21:42      8.04    0.87    0.86
  3C2                  CONDUIT      4.20    79  03:31      7.04    0.37    0.71
  2C1                  CONDUIT      4.20    79  04:13      5.51    0.76    0.94
  9C8                  CONDUIT      6.92   140  12:27      8.99    0.91    1.00
  8C6                  CONDUIT      6.15   101  16:09     11.20    1.05    1.00
  6C5                  CONDUIT      1.58   140  12:45      2.42    0.68    1.00
  7C6                  CONDUIT      6.58   140  12:46     11.48    0.24    0.67
  10C4                 CONDUIT      2.67    78  21:55      1.18    0.00    0.52
  O9                   ORIFICE      8.63    27  05:31                          
  O8                   ORIFICE      7.12   101  16:19                          
  O6                   ORIFICE      0.28    79  07:30                          
  O10                  ORIFICE      2.70    78  21:45                          
  O11                  ORIFICE     11.28   166  13:04                          
  O7                   ORIFICE      6.58   140  12:46                          
  O5                   ORIFICE     11.32   140  12:47                          
  O4                   ORIFICE      4.99    78  22:45                          
  O3                   ORIFICE      4.20    79  03:31                          
  O2                   ORIFICE      4.20    79  04:11                          
  O1                   ORIFICE      5.22    78  23:40                          
  
  
  ***************************
  Flow Classification Summary
  ***************************
  
  -------------------------------------------------------------------------------------
                      Adjusted    ---------- Fraction of Time in Flow Class ---------- 
                       /Actual         Up    Down  Sub   Sup   Up    Down  Norm  Inlet 
  Conduit               Length    Dry  Dry   Dry   Crit  Crit  Crit  Crit  Ltd   Ctrl  
  -------------------------------------------------------------------------------------
  11C10                   1.00   0.08  0.15  0.00  0.76  0.01  0.00  0.00  0.91  0.00
  5C4                     1.00   0.08  0.00  0.00  0.92  0.01  0.00  0.00  0.92  0.00
  4C3                     1.00   0.08  0.00  0.00  0.00  0.92  0.00  0.00  0.91  0.00
  3C2                     1.00   0.08  0.00  0.00  0.00  0.92  0.00  0.00  0.92  0.00
  2C1                     1.00   0.08  0.00  0.00  0.92  0.00  0.00  0.00  0.92  0.00
  9C8                     1.00   0.08  0.01  0.00  0.90  0.01  0.00  0.00  0.54  0.00
  8C6                     1.00   0.08  0.42  0.00  0.50  0.01  0.00  0.00  0.92  0.00
  6C5                     1.00   0.08  0.00  0.00  0.50  0.43  0.00  0.00  0.04  0.00
  7C6                     1.00   0.08  0.58  0.00  0.34  0.00  0.00  0.00  0.92  0.00
  10C4                    1.00   0.08  0.02  0.00  0.90  0.00  0.00  0.00  0.92  0.00
  
  
  *************************
  Conduit Surcharge Summary
  *************************
  
  ----------------------------------------------------------------------------
                                                           Hours        Hours 
                         --------- Hours Full --------   Above Full   Capacity
  Conduit                Both Ends  Upstream  Dnstream   Normal Flow   Limited
  ----------------------------------------------------------------------------
  11C10                      21.97     21.97   3700.03      0.15         0.01
  5C4                         0.01      0.01   5022.27      0.01         0.01
  4C3                         0.01      0.01      8.59      0.01         0.01
  3C2                         0.01      0.01     29.91      0.01         0.01
  2C1                         0.01      0.01   5021.34      0.01         0.01
  9C8                         0.68      0.68    722.72      0.01         0.01
  8C6                         0.52      0.52   1523.38      0.07         0.01
  6C5                         0.54      0.54     16.78      0.01         0.01
  7C6                         0.01      0.01   1341.29      0.01         0.01
  10C4                        0.01      0.01     11.55      0.01         0.01
  
  
  ***************************
  Link Pollutant Load Summary
  ***************************
  
  ----------------------------------
                                 TSS
  Link                           lbs
  ----------------------------------
  11C10                     1182.668
  5C4                        941.805
  4C3                          0.084
  3C2                          0.351
  2C1                        105.183
  9C8                        506.328
  8C6                        188.831
  6C5                          7.026
  7C6                        150.657
  10C4                         2.999
  O9                         509.322
  O8                         186.921
  O6                           0.916
  O10                          1.358
  O11                       1279.645
  O7                         148.698
  O5                         941.294
  O4                           0.081
  O3                           0.341
  O2                         104.795
  O1                           0.134
  

  Analysis begun on:  Tue Nov  5 21:01:22 2024
  Analysis ended on:  Tue Nov  5 21:13:11 2024
  Total elapsed time: 00:11:49